* SPICE3 file created from dco.ext - technology: sky130A

.subckt sky130_fd_sc_hd__buf_4 A VGND VNB VPB VPWR X a_27_47#
X0 VPWR a_27_47# X VPB sky130_fd_pr__pfet_01v8_hvt ad=0.26 pd=2.52 as=0.135 ps=1.27 w=1 l=0.15
X1 X a_27_47# VPWR VPB sky130_fd_pr__pfet_01v8_hvt ad=0.135 pd=1.27 as=0.135 ps=1.27 w=1 l=0.15
X2 VPWR a_27_47# X VPB sky130_fd_pr__pfet_01v8_hvt ad=0.135 pd=1.27 as=0.135 ps=1.27 w=1 l=0.15
X3 X a_27_47# VPWR VPB sky130_fd_pr__pfet_01v8_hvt ad=0.135 pd=1.27 as=0.135 ps=1.27 w=1 l=0.15
X4 X a_27_47# VGND VNB sky130_fd_pr__nfet_01v8 ad=0.08775 pd=0.92 as=0.08775 ps=0.92 w=0.65 l=0.15
X5 X a_27_47# VGND VNB sky130_fd_pr__nfet_01v8 ad=0.08775 pd=0.92 as=0.08775 ps=0.92 w=0.65 l=0.15
X6 VGND a_27_47# X VNB sky130_fd_pr__nfet_01v8 ad=0.08775 pd=0.92 as=0.08775 ps=0.92 w=0.65 l=0.15
X7 VGND a_27_47# X VNB sky130_fd_pr__nfet_01v8 ad=0.169 pd=1.82 as=0.08775 ps=0.92 w=0.65 l=0.15
X8 VPWR A a_27_47# VPB sky130_fd_pr__pfet_01v8_hvt ad=0.135 pd=1.27 as=0.26 ps=2.52 w=1 l=0.15
X9 VGND A a_27_47# VNB sky130_fd_pr__nfet_01v8 ad=0.08775 pd=0.92 as=0.169 ps=1.82 w=0.65 l=0.15
C0 VGND a_27_47# 0.162638f
C1 X a_27_47# 0.206515f
C2 VPWR a_27_47# 0.218122f
C3 A a_27_47# 0.170177f
C4 VPB a_27_47# 0.132153f
C5 X VGND 0.229885f
C6 VPWR VGND 0.072027f
C7 VPWR X 0.332544f
C8 A VGND 0.019369f
C9 VPB VGND 0.007955f
C10 A X 4.66e-19
C11 A VPWR 0.016006f
C12 VPB X 0.008994f
C13 VPB VPWR 0.071068f
C14 VPB A 0.03609f
C15 VGND VNB 0.37777f
C16 X VNB 0.039034f
C17 VPWR VNB 0.325078f
C18 A VNB 0.139971f
C19 VPB VNB 0.604764f
C20 a_27_47# VNB 0.461463f
.ends

.subckt sky130_fd_sc_hd__inv_4 A VGND VNB VPB VPWR Y
X0 VPWR A Y VPB sky130_fd_pr__pfet_01v8_hvt ad=0.26 pd=2.52 as=0.135 ps=1.27 w=1 l=0.15
X1 Y A VPWR VPB sky130_fd_pr__pfet_01v8_hvt ad=0.135 pd=1.27 as=0.135 ps=1.27 w=1 l=0.15
X2 Y A VGND VNB sky130_fd_pr__nfet_01v8 ad=0.08775 pd=0.92 as=0.169 ps=1.82 w=0.65 l=0.15
X3 VPWR A Y VPB sky130_fd_pr__pfet_01v8_hvt ad=0.135 pd=1.27 as=0.135 ps=1.27 w=1 l=0.15
X4 VGND A Y VNB sky130_fd_pr__nfet_01v8 ad=0.08775 pd=0.92 as=0.08775 ps=0.92 w=0.65 l=0.15
X5 Y A VPWR VPB sky130_fd_pr__pfet_01v8_hvt ad=0.135 pd=1.27 as=0.26 ps=2.52 w=1 l=0.15
X6 VGND A Y VNB sky130_fd_pr__nfet_01v8 ad=0.169 pd=1.82 as=0.08775 ps=0.92 w=0.65 l=0.15
X7 Y A VGND VNB sky130_fd_pr__nfet_01v8 ad=0.08775 pd=0.92 as=0.08775 ps=0.92 w=0.65 l=0.15
C0 Y VGND 0.262586f
C1 VPWR VGND 0.050092f
C2 VPWR Y 0.361779f
C3 A VGND 0.081909f
C4 VPB VGND 0.006668f
C5 A Y 0.359887f
C6 A VPWR 0.098226f
C7 VPB Y 0.015896f
C8 VPB VPWR 0.065385f
C9 VPB A 0.141975f
C10 VGND VNB 0.326816f
C11 Y VNB 0.084947f
C12 VPWR VNB 0.296394f
C13 A VNB 0.451855f
C14 VPB VNB 0.516168f
.ends

.subckt sky130_fd_sc_hd__dfxtp_1 CLK D VGND VNB VPB VPWR Q a_975_413# a_891_413# a_466_413#
+ a_592_47# a_1059_315# a_193_47# a_561_413# a_634_159# a_381_47# a_1017_47# a_27_47#
X0 Q a_1059_315# VGND VNB sky130_fd_pr__nfet_01v8 ad=0.169 pd=1.82 as=0.08775 ps=0.92 w=0.65 l=0.15
X1 a_891_413# a_193_47# a_634_159# VNB sky130_fd_pr__special_nfet_01v8 ad=0.0684 pd=0.74 as=0.0989 ps=0.995 w=0.36 l=0.15
X2 a_561_413# a_27_47# a_466_413# VPB sky130_fd_pr__pfet_01v8_hvt ad=0.07665 pd=0.785 as=0.06825 ps=0.745 w=0.42 l=0.15
X3 VPWR CLK a_27_47# VPB sky130_fd_pr__pfet_01v8_hvt ad=0.0864 pd=0.91 as=0.1664 ps=1.8 w=0.64 l=0.15
X4 Q a_1059_315# VPWR VPB sky130_fd_pr__pfet_01v8_hvt ad=0.26 pd=2.52 as=0.135 ps=1.27 w=1 l=0.15
X5 a_381_47# D VPWR VPB sky130_fd_pr__pfet_01v8_hvt ad=0.05775 pd=0.695 as=0.1092 ps=1.36 w=0.42 l=0.15
X6 VGND a_634_159# a_592_47# VNB sky130_fd_pr__nfet_01v8 ad=0.12095 pd=1.085 as=0.0696 ps=0.765 w=0.42 l=0.15
X7 VPWR a_891_413# a_1059_315# VPB sky130_fd_pr__pfet_01v8_hvt ad=0.135 pd=1.27 as=0.27 ps=2.54 w=1 l=0.15
X8 a_466_413# a_193_47# a_381_47# VPB sky130_fd_pr__pfet_01v8_hvt ad=0.06825 pd=0.745 as=0.05775 ps=0.695 w=0.42 l=0.15
X9 VPWR a_634_159# a_561_413# VPB sky130_fd_pr__pfet_01v8_hvt ad=0.178875 pd=1.26 as=0.07665 ps=0.785 w=0.42 l=0.15
X10 a_634_159# a_466_413# VGND VNB sky130_fd_pr__nfet_01v8 ad=0.0989 pd=0.995 as=0.12095 ps=1.085 w=0.64 l=0.15
X11 a_634_159# a_466_413# VPWR VPB sky130_fd_pr__pfet_01v8_hvt ad=0.1095 pd=1.075 as=0.178875 ps=1.26 w=0.75 l=0.15
X12 a_975_413# a_193_47# a_891_413# VPB sky130_fd_pr__pfet_01v8_hvt ad=0.0882 pd=0.84 as=0.0567 ps=0.69 w=0.42 l=0.15
X13 VGND a_1059_315# a_1017_47# VNB sky130_fd_pr__nfet_01v8 ad=0.1092 pd=1.36 as=0.066 ps=0.745 w=0.42 l=0.15
X14 a_193_47# a_27_47# VGND VNB sky130_fd_pr__nfet_01v8 ad=0.1092 pd=1.36 as=0.0567 ps=0.69 w=0.42 l=0.15
X15 a_891_413# a_27_47# a_634_159# VPB sky130_fd_pr__pfet_01v8_hvt ad=0.0567 pd=0.69 as=0.1095 ps=1.075 w=0.42 l=0.15
X16 a_592_47# a_193_47# a_466_413# VNB sky130_fd_pr__special_nfet_01v8 ad=0.0696 pd=0.765 as=0.0621 ps=0.705 w=0.36 l=0.15
X17 VPWR a_1059_315# a_975_413# VPB sky130_fd_pr__pfet_01v8_hvt ad=0.1113 pd=1.37 as=0.0882 ps=0.84 w=0.42 l=0.15
X18 a_1017_47# a_27_47# a_891_413# VNB sky130_fd_pr__special_nfet_01v8 ad=0.066 pd=0.745 as=0.0684 ps=0.74 w=0.36 l=0.15
X19 a_193_47# a_27_47# VPWR VPB sky130_fd_pr__pfet_01v8_hvt ad=0.1664 pd=1.8 as=0.0864 ps=0.91 w=0.64 l=0.15
X20 a_466_413# a_27_47# a_381_47# VNB sky130_fd_pr__special_nfet_01v8 ad=0.0621 pd=0.705 as=0.0813 ps=0.83 w=0.36 l=0.15
X21 VGND a_891_413# a_1059_315# VNB sky130_fd_pr__nfet_01v8 ad=0.08775 pd=0.92 as=0.169 ps=1.82 w=0.65 l=0.15
X22 a_381_47# D VGND VNB sky130_fd_pr__nfet_01v8 ad=0.0813 pd=0.83 as=0.1092 ps=1.36 w=0.42 l=0.15
X23 VGND CLK a_27_47# VNB sky130_fd_pr__nfet_01v8 ad=0.0567 pd=0.69 as=0.1092 ps=1.36 w=0.42 l=0.15
C0 VPWR a_466_413# 0.170985f
C1 a_592_47# a_466_413# 0.005525f
C2 a_381_47# a_466_413# 0.037333f
C3 VPWR a_634_159# 0.102126f
C4 a_592_47# a_634_159# 4.62e-19
C5 VPWR a_975_413# 0.004638f
C6 a_381_47# a_634_159# 3.39e-19
C7 VPWR a_193_47# 0.117215f
C8 a_592_47# a_193_47# 0.001351f
C9 a_381_47# a_193_47# 0.101638f
C10 VPWR a_27_47# 0.379856f
C11 a_381_47# a_27_47# 0.062224f
C12 VPWR Q 0.110929f
C13 VGND a_1017_47# 0.004473f
C14 D VPB 0.096334f
C15 CLK a_193_47# 0.002646f
C16 CLK a_27_47# 0.213838f
C17 a_466_413# a_561_413# 0.007724f
C18 a_27_47# a_561_413# 0.002698f
C19 VPB a_891_413# 0.069773f
C20 D a_193_47# 0.175777f
C21 VPB a_1059_315# 0.154738f
C22 D a_27_47# 0.065857f
C23 VPB a_466_413# 0.074456f
C24 VPB a_634_159# 0.07647f
C25 VPWR VGND 0.063886f
C26 VGND a_592_47# 0.007478f
C27 VPB a_193_47# 0.176133f
C28 VPWR a_1017_47# 4.56e-19
C29 VGND a_381_47# 0.052221f
C30 VPB a_27_47# 0.247821f
C31 Q VPB 0.013828f
C32 VGND CLK 0.019463f
C33 a_1059_315# a_891_413# 0.310858f
C34 a_634_159# a_891_413# 0.036838f
C35 a_975_413# a_891_413# 0.008508f
C36 a_193_47# a_891_413# 0.196846f
C37 a_634_159# a_1059_315# 1.28e-19
C38 a_193_47# a_1059_315# 0.034054f
C39 a_634_159# a_466_413# 0.239923f
C40 a_27_47# a_891_413# 0.032244f
C41 a_27_47# a_1059_315# 0.048748f
C42 a_193_47# a_466_413# 0.083013f
C43 a_975_413# a_634_159# 9.73e-19
C44 Q a_891_413# 0.002146f
C45 a_193_47# a_634_159# 0.127288f
C46 a_27_47# a_466_413# 0.273138f
C47 a_975_413# a_193_47# 6.32e-19
C48 Q a_1059_315# 0.081249f
C49 a_27_47# a_634_159# 0.141453f
C50 a_27_47# a_193_47# 0.974525f
C51 D VGND 0.038993f
C52 Q a_193_47# 2.58e-19
C53 VPWR a_381_47# 0.061283f
C54 Q a_27_47# 2.34e-19
C55 VPWR CLK 0.019411f
C56 VGND VPB 0.012227f
C57 VPWR a_561_413# 0.002923f
C58 a_381_47# a_561_413# 0.001229f
C59 VGND a_891_413# 0.131537f
C60 a_1017_47# a_891_413# 0.006169f
C61 VGND a_1059_315# 0.155119f
C62 a_1017_47# a_1059_315# 7.84e-20
C63 VGND a_466_413# 0.088802f
C64 VGND a_634_159# 0.124877f
C65 a_1017_47# a_634_159# 4.67e-20
C66 VGND a_975_413# 4.07e-19
C67 D VPWR 0.025067f
C68 VGND a_193_47# 0.200101f
C69 D a_381_47# 0.112186f
C70 VGND a_27_47# 0.136686f
C71 VGND Q 0.076612f
C72 VPWR VPB 0.168181f
C73 a_381_47# VPB 0.014142f
C74 VPB CLK 0.070057f
C75 VPWR a_891_413# 0.115323f
C76 VPWR a_1059_315# 0.232446f
C77 Q VNB 0.088256f
C78 VGND VNB 0.84362f
C79 VPWR VNB 0.681368f
C80 D VNB 0.142509f
C81 CLK VNB 0.195983f
C82 VPB VNB 1.49072f
C83 a_381_47# VNB 0.015369f
C84 a_891_413# VNB 0.161052f
C85 a_1059_315# VNB 0.248849f
C86 a_466_413# VNB 0.133203f
C87 a_634_159# VNB 0.142309f
C88 a_193_47# VNB 0.284262f
C89 a_27_47# VNB 0.449511f
.ends

.subckt sky130_fd_sc_hd__dfxbp_2 CLK D VGND VNB VPB VPWR Q Q_N a_975_413# a_891_413#
+ a_466_413# a_592_47# a_1059_315# a_193_47# a_561_413# a_634_159# a_381_47# a_1589_47#
+ a_1017_47# a_27_47#
X0 Q a_1059_315# VGND VNB sky130_fd_pr__nfet_01v8 ad=0.08775 pd=0.92 as=0.08775 ps=0.92 w=0.65 l=0.15
X1 a_891_413# a_193_47# a_634_159# VNB sky130_fd_pr__special_nfet_01v8 ad=0.0684 pd=0.74 as=0.0989 ps=0.995 w=0.36 l=0.15
X2 a_561_413# a_27_47# a_466_413# VPB sky130_fd_pr__pfet_01v8_hvt ad=0.07665 pd=0.785 as=0.06825 ps=0.745 w=0.42 l=0.15
X3 VPWR CLK a_27_47# VPB sky130_fd_pr__pfet_01v8_hvt ad=0.0864 pd=0.91 as=0.1664 ps=1.8 w=0.64 l=0.15
X4 a_381_47# D VPWR VPB sky130_fd_pr__pfet_01v8_hvt ad=0.05775 pd=0.695 as=0.1092 ps=1.36 w=0.42 l=0.15
X5 VGND a_1059_315# a_1589_47# VNB sky130_fd_pr__nfet_01v8 ad=0.10025 pd=0.985 as=0.1092 ps=1.36 w=0.42 l=0.15
X6 VGND a_634_159# a_592_47# VNB sky130_fd_pr__nfet_01v8 ad=0.12095 pd=1.085 as=0.0696 ps=0.765 w=0.42 l=0.15
X7 VPWR a_1589_47# Q_N VPB sky130_fd_pr__pfet_01v8_hvt ad=0.265 pd=2.53 as=0.135 ps=1.27 w=1 l=0.15
X8 VPWR a_1059_315# Q VPB sky130_fd_pr__pfet_01v8_hvt ad=0.26 pd=2.52 as=0.135 ps=1.27 w=1 l=0.15
X9 VGND a_1589_47# Q_N VNB sky130_fd_pr__nfet_01v8 ad=0.17225 pd=1.83 as=0.08775 ps=0.92 w=0.65 l=0.15
X10 a_466_413# a_193_47# a_381_47# VPB sky130_fd_pr__pfet_01v8_hvt ad=0.06825 pd=0.745 as=0.05775 ps=0.695 w=0.42 l=0.15
X11 VPWR a_634_159# a_561_413# VPB sky130_fd_pr__pfet_01v8_hvt ad=0.178875 pd=1.26 as=0.07665 ps=0.785 w=0.42 l=0.15
X12 a_634_159# a_466_413# VGND VNB sky130_fd_pr__nfet_01v8 ad=0.0989 pd=0.995 as=0.12095 ps=1.085 w=0.64 l=0.15
X13 Q a_1059_315# VPWR VPB sky130_fd_pr__pfet_01v8_hvt ad=0.135 pd=1.27 as=0.135 ps=1.27 w=1 l=0.15
X14 a_634_159# a_466_413# VPWR VPB sky130_fd_pr__pfet_01v8_hvt ad=0.1095 pd=1.075 as=0.178875 ps=1.26 w=0.75 l=0.15
X15 a_975_413# a_193_47# a_891_413# VPB sky130_fd_pr__pfet_01v8_hvt ad=0.0882 pd=0.84 as=0.0567 ps=0.69 w=0.42 l=0.15
X16 Q_N a_1589_47# VPWR VPB sky130_fd_pr__pfet_01v8_hvt ad=0.135 pd=1.27 as=0.154 ps=1.335 w=1 l=0.15
X17 VGND a_1059_315# a_1017_47# VNB sky130_fd_pr__nfet_01v8 ad=0.1092 pd=1.36 as=0.066 ps=0.745 w=0.42 l=0.15
X18 a_193_47# a_27_47# VGND VNB sky130_fd_pr__nfet_01v8 ad=0.1092 pd=1.36 as=0.0567 ps=0.69 w=0.42 l=0.15
X19 a_891_413# a_27_47# a_634_159# VPB sky130_fd_pr__pfet_01v8_hvt ad=0.0567 pd=0.69 as=0.1095 ps=1.075 w=0.42 l=0.15
X20 VPWR a_891_413# a_1059_315# VPB sky130_fd_pr__pfet_01v8_hvt ad=0.135 pd=1.27 as=0.27 ps=2.54 w=1 l=0.15
X21 a_592_47# a_193_47# a_466_413# VNB sky130_fd_pr__special_nfet_01v8 ad=0.0696 pd=0.765 as=0.0621 ps=0.705 w=0.36 l=0.15
X22 VPWR a_1059_315# a_1589_47# VPB sky130_fd_pr__pfet_01v8_hvt ad=0.154 pd=1.335 as=0.1664 ps=1.8 w=0.64 l=0.15
X23 Q_N a_1589_47# VGND VNB sky130_fd_pr__nfet_01v8 ad=0.08775 pd=0.92 as=0.10025 ps=0.985 w=0.65 l=0.15
X24 VPWR a_1059_315# a_975_413# VPB sky130_fd_pr__pfet_01v8_hvt ad=0.1113 pd=1.37 as=0.0882 ps=0.84 w=0.42 l=0.15
X25 a_1017_47# a_27_47# a_891_413# VNB sky130_fd_pr__special_nfet_01v8 ad=0.066 pd=0.745 as=0.0684 ps=0.74 w=0.36 l=0.15
X26 a_193_47# a_27_47# VPWR VPB sky130_fd_pr__pfet_01v8_hvt ad=0.1664 pd=1.8 as=0.0864 ps=0.91 w=0.64 l=0.15
X27 a_466_413# a_27_47# a_381_47# VNB sky130_fd_pr__special_nfet_01v8 ad=0.0621 pd=0.705 as=0.0813 ps=0.83 w=0.36 l=0.15
X28 VGND a_891_413# a_1059_315# VNB sky130_fd_pr__nfet_01v8 ad=0.08775 pd=0.92 as=0.169 ps=1.82 w=0.65 l=0.15
X29 VGND a_1059_315# Q VNB sky130_fd_pr__nfet_01v8 ad=0.169 pd=1.82 as=0.08775 ps=0.92 w=0.65 l=0.15
X30 a_381_47# D VGND VNB sky130_fd_pr__nfet_01v8 ad=0.0813 pd=0.83 as=0.1092 ps=1.36 w=0.42 l=0.15
X31 VGND CLK a_27_47# VNB sky130_fd_pr__nfet_01v8 ad=0.0567 pd=0.69 as=0.1092 ps=1.36 w=0.42 l=0.15
C0 a_1059_315# Q 0.133519f
C1 VPWR Q 0.172468f
C2 a_1059_315# a_1589_47# 0.116766f
C3 a_1059_315# a_27_47# 0.048913f
C4 a_466_413# a_193_47# 0.083013f
C5 a_381_47# a_27_47# 0.062224f
C6 a_1589_47# VPWR 0.224154f
C7 a_891_413# VGND 0.131689f
C8 a_193_47# Q_N 7.03e-20
C9 D a_193_47# 0.175777f
C10 VPWR a_27_47# 0.380167f
C11 VPB CLK 0.070057f
C12 a_27_47# a_634_159# 0.141453f
C13 a_466_413# VPB 0.074456f
C14 a_891_413# a_1017_47# 0.006169f
C15 VPB D 0.096334f
C16 VPB Q_N 0.005492f
C17 VGND a_1017_47# 0.004473f
C18 VPB a_193_47# 0.176551f
C19 CLK a_27_47# 0.213838f
C20 a_1059_315# a_891_413# 0.310618f
C21 a_466_413# a_27_47# 0.273138f
C22 a_891_413# a_975_413# 0.008508f
C23 a_1059_315# VGND 0.202744f
C24 a_1589_47# Q_N 0.098975f
C25 a_891_413# VPWR 0.11532f
C26 D a_27_47# 0.065857f
C27 a_27_47# Q_N 7.25e-20
C28 VGND a_381_47# 0.052221f
C29 a_193_47# Q 2.66e-19
C30 a_975_413# VGND 4.07e-19
C31 VPWR VGND 0.134094f
C32 a_891_413# a_634_159# 0.036838f
C33 a_1589_47# a_193_47# 2.12e-19
C34 a_27_47# a_193_47# 0.974525f
C35 VGND a_634_159# 0.124877f
C36 VGND a_592_47# 0.007478f
C37 a_1059_315# a_1017_47# 7.8e-20
C38 VPB Q 0.006781f
C39 VPWR a_1017_47# 4.56e-19
C40 a_1589_47# VPB 0.082201f
C41 VPB a_27_47# 0.247886f
C42 a_1017_47# a_634_159# 4.67e-20
C43 a_381_47# a_561_413# 0.001229f
C44 CLK VGND 0.019463f
C45 VPWR a_561_413# 0.002923f
C46 a_466_413# VGND 0.088802f
C47 a_1589_47# Q 0.034766f
C48 a_1059_315# VPWR 0.282094f
C49 a_27_47# Q 2.33e-19
C50 VPWR a_381_47# 0.061283f
C51 a_975_413# VPWR 0.004638f
C52 D VGND 0.038993f
C53 VGND Q_N 0.139334f
C54 a_891_413# a_193_47# 0.196845f
C55 a_1059_315# a_634_159# 1.28e-19
C56 a_1589_47# a_27_47# 1.98e-19
C57 a_381_47# a_634_159# 3.39e-19
C58 a_975_413# a_634_159# 9.73e-19
C59 VGND a_193_47# 0.200101f
C60 VPWR a_634_159# 0.102126f
C61 a_634_159# a_592_47# 4.62e-19
C62 a_891_413# VPB 0.069859f
C63 a_466_413# a_561_413# 0.007724f
C64 CLK VPWR 0.019411f
C65 VPB VGND 0.020423f
C66 a_466_413# a_381_47# 0.037333f
C67 a_891_413# Q 0.002146f
C68 a_466_413# VPWR 0.170985f
C69 a_1059_315# Q_N 0.003204f
C70 D a_381_47# 0.112186f
C71 VPWR Q_N 0.209726f
C72 D VPWR 0.025067f
C73 VGND Q 0.105043f
C74 a_891_413# a_27_47# 0.032244f
C75 a_466_413# a_634_159# 0.239923f
C76 a_1059_315# a_193_47# 0.034192f
C77 a_381_47# a_193_47# 0.101638f
C78 a_1589_47# VGND 0.160615f
C79 a_975_413# a_193_47# 6.32e-19
C80 VPWR a_193_47# 0.117533f
C81 VGND a_27_47# 0.136707f
C82 a_193_47# a_634_159# 0.127288f
C83 a_466_413# a_592_47# 0.005525f
C84 a_193_47# a_592_47# 0.001351f
C85 a_1059_315# VPB 0.292541f
C86 VPB a_381_47# 0.014142f
C87 VPB VPWR 0.23281f
C88 CLK a_193_47# 0.002646f
C89 VPB a_634_159# 0.07647f
C90 a_27_47# a_561_413# 0.002698f
C91 Q_N VNB 0.024053f
C92 Q VNB 0.005604f
C93 VGND VNB 1.1138f
C94 VPWR VNB 0.910748f
C95 D VNB 0.142509f
C96 CLK VNB 0.195983f
C97 VPB VNB 1.9337f
C98 a_381_47# VNB 0.015369f
C99 a_1589_47# VNB 0.22524f
C100 a_891_413# VNB 0.161329f
C101 a_1059_315# VNB 0.491081f
C102 a_466_413# VNB 0.133203f
C103 a_634_159# VNB 0.142309f
C104 a_193_47# VNB 0.282684f
C105 a_27_47# VNB 0.448183f
.ends

.subckt dco_freq clk clkDiv2 sky130_fd_sc_hd__dfxbp_2_0/a_1589_47# sky130_fd_sc_hd__dfxtp_1_0/a_891_413#
+ Q_N VNB sky130_fd_sc_hd__dfxtp_1_0/a_466_413# sky130_fd_sc_hd__dfxtp_1_0/a_193_47#
+ sky130_fd_sc_hd__dfxbp_2_0/a_891_413# D sky130_fd_sc_hd__dfxtp_1_0/a_381_47# sky130_fd_sc_hd__dfxtp_1_0/a_27_47#
+ sky130_fd_sc_hd__dfxbp_2_0/a_466_413# sky130_fd_sc_hd__dfxtp_1_0/a_634_159# sky130_fd_sc_hd__dfxtp_1_0/a_561_413#
+ sky130_fd_sc_hd__dfxbp_2_0/a_193_47# sky130_fd_sc_hd__dfxbp_2_0/a_1059_315# sky130_fd_sc_hd__dfxbp_2_0/a_381_47#
+ VPB sky130_fd_sc_hd__dfxbp_2_0/a_634_159# Q_N_buf VGND sky130_fd_sc_hd__dfxbp_2_0/a_27_47#
+ VPWR sky130_fd_sc_hd__dfxtp_1_0/a_1059_315# sky130_fd_sc_hd__buf_4_0/a_27_47# clkinv
Xsky130_fd_sc_hd__buf_4_0 Q_N VGND VNB VPB VPWR Q_N_buf sky130_fd_sc_hd__buf_4_0/a_27_47#
+ sky130_fd_sc_hd__buf_4
Xsky130_fd_sc_hd__inv_4_0 clk VGND VNB VPB VPWR clkinv sky130_fd_sc_hd__inv_4
Xsky130_fd_sc_hd__dfxtp_1_0 clkinv Q_N_buf VGND VNB VPB VPWR D sky130_fd_sc_hd__dfxtp_1_0/a_975_413#
+ sky130_fd_sc_hd__dfxtp_1_0/a_891_413# sky130_fd_sc_hd__dfxtp_1_0/a_466_413# sky130_fd_sc_hd__dfxtp_1_0/a_592_47#
+ sky130_fd_sc_hd__dfxtp_1_0/a_1059_315# sky130_fd_sc_hd__dfxtp_1_0/a_193_47# sky130_fd_sc_hd__dfxtp_1_0/a_561_413#
+ sky130_fd_sc_hd__dfxtp_1_0/a_634_159# sky130_fd_sc_hd__dfxtp_1_0/a_381_47# sky130_fd_sc_hd__dfxtp_1_0/a_1017_47#
+ sky130_fd_sc_hd__dfxtp_1_0/a_27_47# sky130_fd_sc_hd__dfxtp_1
Xsky130_fd_sc_hd__dfxbp_2_0 clk D VGND VNB VPB VPWR clkDiv2 Q_N sky130_fd_sc_hd__dfxbp_2_0/a_975_413#
+ sky130_fd_sc_hd__dfxbp_2_0/a_891_413# sky130_fd_sc_hd__dfxbp_2_0/a_466_413# sky130_fd_sc_hd__dfxbp_2_0/a_592_47#
+ sky130_fd_sc_hd__dfxbp_2_0/a_1059_315# sky130_fd_sc_hd__dfxbp_2_0/a_193_47# sky130_fd_sc_hd__dfxbp_2_0/a_561_413#
+ sky130_fd_sc_hd__dfxbp_2_0/a_634_159# sky130_fd_sc_hd__dfxbp_2_0/a_381_47# sky130_fd_sc_hd__dfxbp_2_0/a_1589_47#
+ sky130_fd_sc_hd__dfxbp_2_0/a_1017_47# sky130_fd_sc_hd__dfxbp_2_0/a_27_47# sky130_fd_sc_hd__dfxbp_2
X0 VGND clk.t4 clkinv VNB sky130_fd_pr__nfet_01v8 ad=0.08775 pd=0.92 as=0.08775 ps=0.92 w=0 l=0
X1 VPWR clk.t0 clkinv VPB sky130_fd_pr__pfet_01v8_hvt ad=0.26 pd=2.52 as=0.135 ps=1.27 w=0 l=0
X2 clkinv clk.t1 VPWR VPB sky130_fd_pr__pfet_01v8_hvt ad=0.135 pd=1.27 as=0.135 ps=1.27 w=0 l=0
X3 clkinv clk.t2 VGND VNB sky130_fd_pr__nfet_01v8 ad=0.08775 pd=0.92 as=0.169 ps=1.82 w=0 l=0
X4 clkinv clk.t7 VGND VNB sky130_fd_pr__nfet_01v8 ad=0.08775 pd=0.92 as=0.08775 ps=0.92 w=0 l=0
X5 VPWR clk.t8 sky130_fd_sc_hd__dfxbp_2_0/a_27_47# VPB sky130_fd_pr__pfet_01v8_hvt ad=0.0864 pd=0.91 as=0.1664 ps=1.8 w=0 l=0
X6 VPWR clk.t3 clkinv VPB sky130_fd_pr__pfet_01v8_hvt ad=0.135 pd=1.27 as=0.135 ps=1.27 w=0 l=0
X7 VGND clk.t6 clkinv VNB sky130_fd_pr__nfet_01v8 ad=0.169 pd=1.82 as=0.08775 ps=0.92 w=0 l=0
X8 VGND clk.t9 sky130_fd_sc_hd__dfxbp_2_0/a_27_47# VNB sky130_fd_pr__nfet_01v8 ad=0.0567 pd=0.69 as=0.1092 ps=1.36 w=0 l=0
X9 clkinv clk.t5 VPWR VPB sky130_fd_pr__pfet_01v8_hvt ad=0.135 pd=1.27 as=0.26 ps=2.52 w=0 l=0
R0 clk.n20 clk.t8 294.557
R1 clk.n6 clk.t0 224.131
R2 clk.n4 clk.t5 219.221
R3 clk.n4 clk.t3 219.221
R4 clk.n4 clk.t1 219.221
R5 clk.n20 clk.t9 211.01
R6 clk.n18 clk.n17 163.044
R7 clk.n16 clk.t2 162.095
R8 clk.n11 clk.t4 162.095
R9 clk.n9 clk.t7 162.095
R10 clk.n8 clk 154.304
R11 clk.n13 clk.n12 152
R12 clk.n15 clk.n14 152
R13 clk.n21 clk.n20 152
R14 clk.n4 clk.n3 147.814
R15 clk.n4 clk.n2 147.814
R16 clk.n4 clk.n1 147.814
R17 clk.n6 clk.t6 143.637
R18 clk.n4 clk.n0 40.1672
R19 clk.n13 clk 19.2005
R20 clk.n7 clk.n6 18.2383
R21 clk.n14 clk 17.1525
R22 clk.n18 clk 17.1525
R23 clk clk.n19 12.6182
R24 clk.n21 clk 11.4468
R25 clk.n16 clk.n15 10.6045
R26 clk.n12 clk.n11 10.6045
R27 clk.n9 clk.n8 10.6045
R28 clk.n17 clk.n16 8.68211
R29 clk.n8 clk.n7 7.9524
R30 clk.n11 clk.n5 7.50383
R31 clk.n10 clk.n9 7.50383
R32 clk.n7 clk.n4 7.15289
R33 clk.n15 clk.n5 7.13096
R34 clk.n12 clk.n10 7.13096
R35 clk.n5 clk.n4 6.67018
R36 clk.n10 clk.n4 6.67018
R37 clk.n14 clk 6.4005
R38 clk.n19 clk 5.8885
R39 clk.n17 clk.n4 4.96365
R40 clk clk.n13 4.3525
R41 clk clk.n21 1.96973
R42 clk.n19 clk.n18 0.5125
R43 clkDiv2 clkDiv2 19.6138
C0 sky130_fd_sc_hd__dfxbp_2_0/a_561_413# clkDiv2 1.34e-19
C1 sky130_fd_sc_hd__dfxtp_1_0/a_1059_315# clkDiv2 1.62e-19
C2 sky130_fd_sc_hd__dfxbp_2_0/a_27_47# sky130_fd_sc_hd__buf_4_0/a_27_47# 1.71e-20
C3 Q_N_buf clkDiv2 4.41e-20
C4 sky130_fd_sc_hd__dfxbp_2_0/a_193_47# sky130_fd_sc_hd__dfxtp_1_0/a_466_413# 4.92e-19
C5 sky130_fd_sc_hd__dfxtp_1_0/a_1059_315# sky130_fd_sc_hd__dfxtp_1_0/a_891_413# 5.68e-32
C6 Q_N_buf sky130_fd_sc_hd__dfxtp_1_0/a_891_413# 6.78e-19
C7 sky130_fd_sc_hd__dfxtp_1_0/a_975_413# VPWR 1.27e-20
C8 sky130_fd_sc_hd__dfxbp_2_0/a_891_413# sky130_fd_sc_hd__dfxtp_1_0/a_27_47# 0.002209f
C9 VPB VGND 0.06173f
C10 Q_N_buf sky130_fd_sc_hd__dfxtp_1_0/a_466_413# 0.002029f
C11 clkinv clk 0.011257f
C12 VPB sky130_fd_sc_hd__dfxtp_1_0/a_193_47# 0.003672f
C13 sky130_fd_sc_hd__dfxbp_2_0/a_193_47# sky130_fd_sc_hd__dfxbp_2_0/a_1589_47# -2.12e-19
C14 VPB Q_N 0.136184f
C15 sky130_fd_sc_hd__dfxbp_2_0/a_634_159# clkDiv2 0.001678f
C16 VPB sky130_fd_sc_hd__dfxbp_2_0/a_466_413# -1.42e-32
C17 D sky130_fd_sc_hd__dfxbp_2_0/a_592_47# 5.91e-19
C18 VPB VPWR 0.280994f
C19 sky130_fd_sc_hd__dfxbp_2_0/a_975_413# clkDiv2 2.62e-19
C20 sky130_fd_sc_hd__dfxtp_1_0/a_1059_315# sky130_fd_sc_hd__dfxbp_2_0/a_1589_47# 9.24e-20
C21 clkinv D 0.002512f
C22 VPB sky130_fd_sc_hd__dfxbp_2_0/a_27_47# 0.007289f
C23 sky130_fd_sc_hd__dfxbp_2_0/a_891_413# VGND 5.21e-19
C24 VGND clkDiv2 0.210184f
C25 clk D 0.147589f
C26 sky130_fd_sc_hd__dfxbp_2_0/a_891_413# sky130_fd_sc_hd__dfxtp_1_0/a_193_47# 0.001629f
C27 sky130_fd_sc_hd__dfxbp_2_0/a_891_413# Q_N 6.11e-19
C28 VPB sky130_fd_sc_hd__dfxtp_1_0/a_634_159# 9.79e-19
C29 Q_N clkDiv2 0.049217f
C30 sky130_fd_sc_hd__dfxbp_2_0/a_466_413# clkDiv2 0.00106f
C31 VPB sky130_fd_sc_hd__dfxtp_1_0/a_381_47# 5.71e-22
C32 VPB sky130_fd_sc_hd__dfxbp_2_0/a_1059_315# 0.003544f
C33 D sky130_fd_sc_hd__dfxbp_2_0/a_1017_47# 1.2e-19
C34 sky130_fd_sc_hd__dfxtp_1_0/a_891_413# VGND -7.08e-33
C35 VGND sky130_fd_sc_hd__dfxtp_1_0/a_466_413# 3.62e-20
C36 sky130_fd_sc_hd__dfxbp_2_0/a_891_413# VPWR 2.15e-20
C37 VPWR clkDiv2 0.492485f
C38 Q_N sky130_fd_sc_hd__dfxtp_1_0/a_466_413# 1.63e-20
C39 sky130_fd_sc_hd__dfxbp_2_0/a_466_413# sky130_fd_sc_hd__dfxtp_1_0/a_466_413# 4.55e-20
C40 sky130_fd_sc_hd__dfxbp_2_0/a_27_47# sky130_fd_sc_hd__dfxbp_2_0/a_891_413# 7.11e-33
C41 sky130_fd_sc_hd__dfxbp_2_0/a_27_47# clkDiv2 0.005545f
C42 sky130_fd_sc_hd__buf_4_0/a_27_47# clk 0.015701f
C43 sky130_fd_sc_hd__dfxtp_1_0/a_891_413# VPWR 7.27e-19
C44 sky130_fd_sc_hd__dfxtp_1_0/a_466_413# VPWR 4.39e-19
C45 sky130_fd_sc_hd__dfxbp_2_0/a_1589_47# VGND 0.001098f
C46 sky130_fd_sc_hd__dfxbp_2_0/a_891_413# sky130_fd_sc_hd__dfxtp_1_0/a_634_159# 4.34e-20
C47 sky130_fd_sc_hd__dfxbp_2_0/a_381_47# sky130_fd_sc_hd__dfxtp_1_0/a_27_47# 7.78e-20
C48 sky130_fd_sc_hd__dfxbp_2_0/a_1589_47# Q_N 0.016361f
C49 sky130_fd_sc_hd__dfxbp_2_0/a_1059_315# sky130_fd_sc_hd__dfxbp_2_0/a_891_413# 1.42e-32
C50 sky130_fd_sc_hd__dfxbp_2_0/a_1059_315# clkDiv2 0.075295f
C51 sky130_fd_sc_hd__dfxbp_2_0/a_27_47# sky130_fd_sc_hd__dfxtp_1_0/a_466_413# 3.24e-19
C52 sky130_fd_sc_hd__buf_4_0/a_27_47# D 0.001328f
C53 Q_N_buf sky130_fd_sc_hd__dfxbp_2_0/a_193_47# 6.76e-20
C54 sky130_fd_sc_hd__dfxbp_2_0/a_1589_47# VPWR -0.020363f
C55 sky130_fd_sc_hd__dfxtp_1_0/a_1017_47# D 2.88e-19
C56 sky130_fd_sc_hd__dfxbp_2_0/a_1059_315# sky130_fd_sc_hd__dfxtp_1_0/a_891_413# 0.003484f
C57 sky130_fd_sc_hd__dfxbp_2_0/a_1059_315# sky130_fd_sc_hd__dfxtp_1_0/a_466_413# 0.001438f
C58 VPB clkinv 0.110131f
C59 Q_N_buf sky130_fd_sc_hd__dfxtp_1_0/a_1059_315# 5.47e-19
C60 sky130_fd_sc_hd__dfxbp_2_0/a_193_47# sky130_fd_sc_hd__dfxtp_1_0/a_27_47# 0.001856f
C61 sky130_fd_sc_hd__dfxbp_2_0/a_27_47# sky130_fd_sc_hd__dfxbp_2_0/a_1589_47# -1.85e-19
C62 VPB clk 0.375747f
C63 Q_N_buf sky130_fd_sc_hd__dfxtp_1_0/a_27_47# 0.084404f
C64 sky130_fd_sc_hd__dfxtp_1_0/a_592_47# D 1.4e-19
C65 Q_N_buf sky130_fd_sc_hd__dfxbp_2_0/a_634_159# 0.001278f
C66 clkDiv2 sky130_fd_sc_hd__dfxbp_2_0/a_592_47# 8.51e-20
C67 sky130_fd_sc_hd__dfxbp_2_0/a_381_47# VPWR 3.34e-21
C68 VPB D 0.007991f
C69 sky130_fd_sc_hd__dfxbp_2_0/a_193_47# VGND -0.030275f
C70 sky130_fd_sc_hd__dfxbp_2_0/a_634_159# sky130_fd_sc_hd__dfxtp_1_0/a_27_47# 6.24e-21
C71 sky130_fd_sc_hd__dfxbp_2_0/a_193_47# sky130_fd_sc_hd__dfxtp_1_0/a_193_47# 2.29e-19
C72 sky130_fd_sc_hd__dfxbp_2_0/a_193_47# Q_N 7.66e-19
C73 sky130_fd_sc_hd__dfxtp_1_0/a_1059_315# VGND 1.11e-20
C74 sky130_fd_sc_hd__dfxbp_2_0/a_891_413# clk 1.62e-19
C75 clk clkDiv2 7.54e-19
C76 Q_N_buf VGND 0.36335f
C77 sky130_fd_sc_hd__dfxbp_2_0/a_193_47# VPWR -2.67e-19
C78 sky130_fd_sc_hd__dfxtp_1_0/a_1059_315# Q_N 4.17e-21
C79 Q_N_buf sky130_fd_sc_hd__dfxtp_1_0/a_193_47# 0.085717f
C80 Q_N_buf Q_N 2.77e-19
C81 Q_N_buf sky130_fd_sc_hd__dfxbp_2_0/a_466_413# 1.11e-19
C82 VPB sky130_fd_sc_hd__buf_4_0/a_27_47# 0.046623f
C83 clkDiv2 sky130_fd_sc_hd__dfxbp_2_0/a_1017_47# 1.58e-19
C84 sky130_fd_sc_hd__dfxbp_2_0/a_561_413# VPWR 6.38e-21
C85 sky130_fd_sc_hd__dfxbp_2_0/a_891_413# D 0.001382f
C86 sky130_fd_sc_hd__dfxtp_1_0/a_1059_315# VPWR 0.002573f
C87 sky130_fd_sc_hd__dfxbp_2_0/a_27_47# sky130_fd_sc_hd__dfxbp_2_0/a_193_47# -4.55e-31
C88 D clkDiv2 0.006781f
C89 sky130_fd_sc_hd__dfxtp_1_0/a_466_413# clk 4.74e-20
C90 VGND sky130_fd_sc_hd__dfxtp_1_0/a_27_47# -0.023699f
C91 Q_N_buf VPWR 0.33415f
C92 Q_N sky130_fd_sc_hd__dfxtp_1_0/a_27_47# 1.74e-20
C93 sky130_fd_sc_hd__dfxbp_2_0/a_634_159# VGND 3.07e-19
C94 sky130_fd_sc_hd__dfxbp_2_0/a_193_47# sky130_fd_sc_hd__dfxtp_1_0/a_634_159# 0.001814f
C95 sky130_fd_sc_hd__dfxbp_2_0/a_466_413# sky130_fd_sc_hd__dfxtp_1_0/a_27_47# 0.002066f
C96 sky130_fd_sc_hd__dfxbp_2_0/a_634_159# sky130_fd_sc_hd__dfxtp_1_0/a_193_47# 2.39e-19
C97 sky130_fd_sc_hd__dfxbp_2_0/a_634_159# Q_N 4.18e-19
C98 sky130_fd_sc_hd__dfxbp_2_0/a_193_47# sky130_fd_sc_hd__dfxbp_2_0/a_1059_315# -1.99e-19
C99 sky130_fd_sc_hd__dfxtp_1_0/a_891_413# D 0.002337f
C100 Q_N_buf sky130_fd_sc_hd__dfxbp_2_0/a_27_47# 0.02909f
C101 sky130_fd_sc_hd__dfxtp_1_0/a_466_413# D 2.82e-19
C102 VPWR sky130_fd_sc_hd__dfxtp_1_0/a_27_47# 0.004045f
C103 sky130_fd_sc_hd__dfxbp_2_0/a_634_159# VPWR 4.21e-20
C104 Q_N_buf sky130_fd_sc_hd__dfxtp_1_0/a_634_159# 0.002605f
C105 sky130_fd_sc_hd__dfxbp_2_0/a_1059_315# sky130_fd_sc_hd__dfxtp_1_0/a_1059_315# 0.004084f
C106 Q_N_buf sky130_fd_sc_hd__dfxtp_1_0/a_381_47# 0.015874f
C107 sky130_fd_sc_hd__dfxbp_2_0/a_27_47# sky130_fd_sc_hd__dfxtp_1_0/a_27_47# 1.05e-19
C108 sky130_fd_sc_hd__dfxbp_2_0/a_975_413# VPWR 1.48e-20
C109 sky130_fd_sc_hd__dfxbp_2_0/a_1589_47# D 0.001458f
C110 sky130_fd_sc_hd__dfxtp_1_0/a_193_47# VGND -0.030405f
C111 Q_N VGND 0.61648f
C112 clkinv sky130_fd_sc_hd__dfxbp_2_0/a_381_47# 9.41e-20
C113 sky130_fd_sc_hd__dfxbp_2_0/a_466_413# VGND 4.31e-19
C114 sky130_fd_sc_hd__dfxtp_1_0/a_193_47# Q_N 1.55e-20
C115 sky130_fd_sc_hd__dfxbp_2_0/a_1059_315# sky130_fd_sc_hd__dfxtp_1_0/a_27_47# 4.86e-19
C116 sky130_fd_sc_hd__dfxbp_2_0/a_466_413# sky130_fd_sc_hd__dfxtp_1_0/a_193_47# 8.17e-19
C117 sky130_fd_sc_hd__dfxbp_2_0/a_466_413# Q_N 4.45e-19
C118 sky130_fd_sc_hd__dfxbp_2_0/a_634_159# sky130_fd_sc_hd__dfxtp_1_0/a_381_47# 1.4e-19
C119 VGND VPWR 0.571705f
C120 sky130_fd_sc_hd__dfxtp_1_0/a_193_47# VPWR 0.001013f
C121 Q_N VPWR 0.021075f
C122 sky130_fd_sc_hd__dfxbp_2_0/a_381_47# clk 3.38e-19
C123 sky130_fd_sc_hd__dfxbp_2_0/a_466_413# VPWR 7.7e-21
C124 sky130_fd_sc_hd__dfxbp_2_0/a_27_47# VGND -0.018952f
C125 sky130_fd_sc_hd__dfxbp_2_0/a_27_47# sky130_fd_sc_hd__dfxtp_1_0/a_193_47# 9.95e-19
C126 sky130_fd_sc_hd__dfxbp_2_0/a_27_47# Q_N 0.001165f
C127 sky130_fd_sc_hd__dfxbp_2_0/a_381_47# D 0.019054f
C128 VPB sky130_fd_sc_hd__dfxbp_2_0/a_891_413# 4.11e-20
C129 VPB clkDiv2 0.127574f
C130 sky130_fd_sc_hd__dfxtp_1_0/a_381_47# VGND 7.11e-33
C131 sky130_fd_sc_hd__dfxbp_2_0/a_1059_315# VGND -0.002008f
C132 Q_N_buf clkinv 0.090116f
C133 sky130_fd_sc_hd__dfxbp_2_0/a_193_47# clk 0.013275f
C134 sky130_fd_sc_hd__dfxbp_2_0/a_27_47# VPWR -9.47e-19
C135 sky130_fd_sc_hd__dfxbp_2_0/a_1059_315# sky130_fd_sc_hd__dfxtp_1_0/a_193_47# 1.87e-19
C136 sky130_fd_sc_hd__dfxbp_2_0/a_1059_315# Q_N 0.001989f
C137 sky130_fd_sc_hd__dfxbp_2_0/a_466_413# sky130_fd_sc_hd__dfxtp_1_0/a_381_47# 1.17e-20
C138 VPWR sky130_fd_sc_hd__dfxtp_1_0/a_634_159# 3.82e-19
C139 VPB sky130_fd_sc_hd__dfxtp_1_0/a_891_413# 0.002207f
C140 VPB sky130_fd_sc_hd__dfxtp_1_0/a_466_413# 0.001132f
C141 sky130_fd_sc_hd__dfxbp_2_0/a_561_413# clk 1.38e-19
C142 clkinv sky130_fd_sc_hd__dfxtp_1_0/a_27_47# 0.006293f
C143 sky130_fd_sc_hd__dfxtp_1_0/a_381_47# VPWR 3.56e-20
C144 sky130_fd_sc_hd__dfxbp_2_0/a_1059_315# VPWR -0.009602f
C145 sky130_fd_sc_hd__dfxbp_2_0/a_193_47# D 0.088026f
C146 Q_N_buf clk 0.114782f
C147 sky130_fd_sc_hd__dfxbp_2_0/a_27_47# sky130_fd_sc_hd__dfxtp_1_0/a_634_159# 6.89e-19
C148 sky130_fd_sc_hd__dfxbp_2_0/a_891_413# clkDiv2 0.010318f
C149 sky130_fd_sc_hd__dfxbp_2_0/a_27_47# sky130_fd_sc_hd__dfxbp_2_0/a_1059_315# -1.97e-19
C150 sky130_fd_sc_hd__dfxtp_1_0/a_1059_315# D 0.009268f
C151 VPB sky130_fd_sc_hd__dfxbp_2_0/a_1589_47# 0.008136f
C152 clk sky130_fd_sc_hd__dfxtp_1_0/a_27_47# 4.59e-19
C153 Q_N_buf D 0.013368f
C154 sky130_fd_sc_hd__dfxbp_2_0/a_1059_315# sky130_fd_sc_hd__dfxtp_1_0/a_634_159# 1.41e-19
C155 sky130_fd_sc_hd__dfxbp_2_0/a_634_159# clk 2.07e-19
C156 sky130_fd_sc_hd__dfxtp_1_0/a_891_413# sky130_fd_sc_hd__dfxbp_2_0/a_891_413# 5.66e-20
C157 sky130_fd_sc_hd__dfxtp_1_0/a_891_413# clkDiv2 1.47e-19
C158 sky130_fd_sc_hd__dfxbp_2_0/a_891_413# sky130_fd_sc_hd__dfxtp_1_0/a_466_413# 2.01e-19
C159 sky130_fd_sc_hd__dfxtp_1_0/a_27_47# D 7.9e-19
C160 clkinv VGND 0.006746f
C161 sky130_fd_sc_hd__dfxbp_2_0/a_975_413# clk 6.97e-20
C162 clkinv sky130_fd_sc_hd__dfxtp_1_0/a_193_47# 0.00275f
C163 sky130_fd_sc_hd__dfxbp_2_0/a_634_159# D 0.00325f
C164 clkinv Q_N 4.38e-21
C165 Q_N_buf sky130_fd_sc_hd__buf_4_0/a_27_47# 0.016687f
C166 sky130_fd_sc_hd__dfxbp_2_0/a_1589_47# clkDiv2 0.065324f
C167 clkinv VPWR 0.036262f
C168 VGND clk 0.151576f
C169 VPB sky130_fd_sc_hd__dfxbp_2_0/a_381_47# -3.55e-33
C170 sky130_fd_sc_hd__dfxtp_1_0/a_193_47# clk 2.12e-19
C171 Q_N clk 0.004942f
C172 Q_N_buf sky130_fd_sc_hd__dfxtp_1_0/a_1017_47# 8.22e-20
C173 sky130_fd_sc_hd__dfxbp_2_0/a_466_413# clk 6.09e-19
C174 VGND sky130_fd_sc_hd__dfxbp_2_0/a_1017_47# 3.73e-20
C175 sky130_fd_sc_hd__dfxbp_2_0/a_27_47# clkinv 1.32e-19
C176 VGND D 1.178677f
C177 sky130_fd_sc_hd__dfxtp_1_0/a_561_413# VPWR 2.85e-20
C178 clk VPWR 0.436912f
C179 sky130_fd_sc_hd__dfxtp_1_0/a_193_47# D 7.32e-19
C180 Q_N D 0.376492f
C181 sky130_fd_sc_hd__dfxbp_2_0/a_466_413# D 0.003297f
C182 VPB sky130_fd_sc_hd__dfxbp_2_0/a_193_47# -7.28e-19
C183 Q_N_buf sky130_fd_sc_hd__dfxtp_1_0/a_592_47# 4.28e-19
C184 sky130_fd_sc_hd__dfxbp_2_0/a_27_47# clk 0.027013f
C185 VPWR D 0.144864f
C186 sky130_fd_sc_hd__dfxbp_2_0/a_381_47# clkDiv2 2.48e-19
C187 clk sky130_fd_sc_hd__dfxtp_1_0/a_634_159# 9.5e-21
C188 VPB sky130_fd_sc_hd__dfxtp_1_0/a_1059_315# 0.001566f
C189 Q_N_buf VPB 0.153117f
C190 sky130_fd_sc_hd__buf_4_0/a_27_47# VGND -3.08e-19
C191 sky130_fd_sc_hd__dfxtp_1_0/a_381_47# clk 1.56e-20
C192 sky130_fd_sc_hd__dfxbp_2_0/a_1059_315# clk 1.1e-19