* SPICE3 file created from vco.ext - technology: sky130A

.subckt vco_aux_inv A VPWR VGND Y VCCA GND
X0 Y.t1 A.t0 VPWR.t0 VCCA.t0 sky130_fd_pr__pfet_01v8 ad=2 pd=10.8 as=2 ps=10.8 w=5 l=3.65
X1 Y.t0 A.t1 VGND.t0 GND.t0 sky130_fd_pr__nfet_01v8 ad=1.6 pd=8.8 as=1.6 ps=8.8 w=4 l=3.65
R0 A A.n0 83.7767
R1 A.n0 A.t0 33.0142
R2 A.n0 A.t1 26.4115
R3 VPWR VPWR.t0 99.8048
R4 Y Y.t1 123.802
R5 Y Y.t0 71.6058
R6 VCCA VCCA.t0 825.715
R7 VGND VGND.t0 55.6043
R8 GND GND.t0 3553.64
C0 A VGND 0.188319f
C1 VGND Y 0.026913f
C2 VCCA VGND 0.002199f
C3 VPWR VGND 0.008571f
C4 A Y 0.484001f
C5 VCCA A 0.382129f
C6 A VPWR 0.235399f
C7 VCCA Y 0.030509f
C8 VPWR Y 0.033641f
C9 VCCA VPWR 0.110847f
C10 VGND GND 0.253489f
C11 Y GND 0.57278f
C12 VPWR GND 0.226178f
C13 A GND 1.810962f
C14 VCCA GND 4.018579f
C15 VGND.t0 GND 0.147555f
C16 VCCA.t0 GND 0.410921f
C17 Y.t1 GND 0.195096f
C18 Y.t0 GND 0.168683f
C19 VPWR.t0 GND 0.206917f
C20 A.t0 GND 0.470811f
C21 A.t1 GND 0.365405f
C22 A.n0 GND 0.426892f
.ends

.subckt vco_main_inv A VPWR VGND Y VCCA GND
X0 VPWR.t1 A.t0 Y.t0 VCCA.t1 sky130_fd_pr__pfet_01v8 ad=2 pd=10.8 as=1 ps=5.4 w=5 l=3.65
X1 Y.t3 A.t1 VGND.t1 GND.t1 sky130_fd_pr__nfet_01v8 ad=0.8 pd=4.4 as=1.6 ps=8.8 w=4 l=3.65
X2 VGND.t0 A.t2 Y.t1 GND.t0 sky130_fd_pr__nfet_01v8 ad=1.6 pd=8.8 as=0.8 ps=4.4 w=4 l=3.65
X3 Y.t2 A.t3 VPWR.t0 VCCA.t0 sky130_fd_pr__pfet_01v8 ad=1 pd=5.4 as=2 ps=10.8 w=5 l=3.65
R0 A.n6 A.n3 154.782
R1 A.n13 A.n12 152
R2 A.n7 A.n4 152
R3 A.n9 A.n8 152
R4 A.n8 A.n2 139.321
R5 A.n14 A.n13 96.7759
R6 A.n2 A.t3 33.0142
R7 A.n5 A.t0 33.0142
R8 A.n2 A.t1 26.4115
R9 A.n5 A.t2 26.4115
R10 A.n7 A.n6 18.3624
R11 A.n8 A.n7 18.3624
R12 A.n6 A.n5 17.2148
R13 A.n15 A.n14 13.3645
R14 A.n10 A.n9 9.3005
R15 A.n12 A.n11 9.3005
R16 A.n1 A.n0 9.3005
R17 A.n12 A.n1 7.87742
R18 A.n9 A.n4 7.87742
R19 A.n14 A.n1 3.62653
R20 A.n10 A.n3 3.36202
R21 A.n4 A.n3 2.75975
R22 A.n13 A.n2 1.14812
R23 A.n11 A.n10 0.558192
R24 A.n11 A.n0 0.0774231
R25 A.n15 A.n0 0.0774231
R26 A A.n15 0.0389615
R27 Y.n2 Y.n1 174.363
R28 Y Y.n2 42.4398
R29 Y.n1 Y.t0 7.8805
R30 Y.n1 Y.t2 7.8805
R31 Y.n2 Y.n0 7.16508
R32 Y.n0 Y.t1 6.0005
R33 Y.n0 Y.t3 6.0005
R34 VPWR VPWR.t0 258.204
R35 VPWR VPWR.t1 258.204
R36 VCCA VCCA.t0 825.715
R37 VCCA.t0 VCCA.t1 663.362
R38 VGND VGND.t1 214.005
R39 VGND VGND.t0 214.002
R40 GND GND.t1 3194.5
R41 GND.t1 GND.t0 2994.96
C0 VPWR VCCA 0.155613f
C1 A VGND 0.648068f
C2 A VCCA 0.757456f
C3 VPWR Y 0.07709f
C4 VCCA VGND 0.004398f
C5 A Y 1.12239f
C6 VGND Y 0.063634f
C7 VPWR A 0.741218f
C8 VPWR VGND 0.017143f
C9 VCCA Y 0.006043f
C10 VGND GND 1.288724f
C11 Y GND 0.092157f
C12 VPWR GND 1.33196f
C13 A GND 3.610646f
C14 VCCA GND 6.848316f
C15 VGND.t0 GND 0.250404f
C16 VGND.t1 GND 0.250403f
C17 VCCA.t1 GND 0.461883f
C18 VCCA.t0 GND 0.434851f
C19 VPWR.t1 GND 0.343875f
C20 VPWR.t0 GND 0.343875f
C21 Y.t1 GND 0.068241f
C22 Y.t3 GND 0.068241f
C23 Y.n0 GND 0.136483f
C24 Y.t0 GND 0.085302f
C25 Y.t2 GND 0.085302f
C26 Y.n1 GND 0.454874f
C27 Y.n2 GND 0.32761f
C28 A.n0 GND 0.011465f
C29 A.n1 GND 0.011465f
C30 A.t3 GND 0.539176f
C31 A.t1 GND 0.418465f
C32 A.n2 GND 0.429081f
C33 A.n3 GND 0.011874f
C34 A.n4 GND 0.011465f
C35 A.t0 GND 0.539176f
C36 A.t2 GND 0.418465f
C37 A.n5 GND 0.455312f
C38 A.n6 GND 0.018149f
C39 A.n7 GND 0.01852f
C40 A.n8 GND 0.070712f
C41 A.n9 GND 0.011465f
C42 A.n10 GND 0.069605f
C43 A.n11 GND 0.047292f
C44 A.n12 GND 0.011465f
C45 A.n13 GND 0.065011f
C46 A.n14 GND 0.025065f
C47 A.n15 GND 0.013906f
.ends

.subckt vco_cc_inv outp inn outn VPWR inp VCCA GND VGND
Xvco_aux_inv_0 outp VPWR VGND outn VCCA GND vco_aux_inv
Xvco_aux_inv_1 outn VPWR VGND outp VCCA GND vco_aux_inv
Xvco_main_inv_0 inp VPWR VGND outp VCCA GND vco_main_inv
Xvco_main_inv_1 inn VPWR VGND outn VCCA GND vco_main_inv
X0 outn outp.t2 VPWR VCCA sky130_fd_pr__pfet_01v8 ad=2 pd=10.8 as=2 ps=10.8 w=0 l=0
X1 VGND inn.t2 outn GND sky130_fd_pr__nfet_01v8 ad=1.6 pd=8.8 as=0.8 ps=4.4 w=0 l=0
X2 outp inp.t1 VGND GND sky130_fd_pr__nfet_01v8 ad=0.8 pd=4.4 as=1.6 ps=8.8 w=0 l=0
X3 outp outn.t0 VPWR VCCA sky130_fd_pr__pfet_01v8 ad=2 pd=10.8 as=2 ps=10.8 w=0 l=0
X4 outp outn.t1 VGND GND sky130_fd_pr__nfet_01v8 ad=1.6 pd=8.8 as=1.6 ps=8.8 w=0 l=0
X5 VPWR inn.t0 outn VCCA sky130_fd_pr__pfet_01v8 ad=2 pd=10.8 as=1 ps=5.4 w=0 l=0
X6 VPWR inp.t0 outp VCCA sky130_fd_pr__pfet_01v8 ad=2 pd=10.8 as=1 ps=5.4 w=0 l=0
X7 VGND inp.t2 outp GND sky130_fd_pr__nfet_01v8 ad=1.6 pd=8.8 as=0.8 ps=4.4 w=0 l=0
X8 outn inn.t3 VPWR VCCA sky130_fd_pr__pfet_01v8 ad=1 pd=5.4 as=2 ps=10.8 w=0 l=0
X9 outp inp.t3 VPWR VCCA sky130_fd_pr__pfet_01v8 ad=1 pd=5.4 as=2 ps=10.8 w=0 l=0
X10 outn inn.t1 VGND GND sky130_fd_pr__nfet_01v8 ad=0.8 pd=4.4 as=1.6 ps=8.8 w=0 l=0
X11 outn outp.t3 VGND GND sky130_fd_pr__nfet_01v8 ad=1.6 pd=8.8 as=1.6 ps=8.8 w=0 l=0
R0 outp.n3 outp.n2 169.702
R1 outp.n6 outp.n5 152
R2 outp.n1 outp.n0 152
R3 outp outp.n6 61.9719
R4 outp.n2 outp.t2 33.0142
R5 outp.n2 outp.t3 26.4115
R6 outp.n6 outp.n0 18.3624
R7 outp.n5 outp.n4 9.1001
R8 outp.n5 outp.n1 7.87742
R9 outp.n4 outp 5.11554
R10 outp.n2 outp.n0 3.44336
R11 outp.n4 outp.n3 3.30681
R12 outp.n3 outp.n1 2.75975
R13 VPWR VPWR 184
R14 VPWR VPWR 48.0005
R15 outn.n4 outn.n0 152
R16 outn.n6 outn.n5 152
R17 outn.n3 outn.n1 152
R18 outn.n9 outn 140.952
R19 outn outn.n9 57.8268
R20 outn outn.n0 53.859
R21 outn.n4 outn 34.4291
R22 outn.n2 outn.t0 33.0142
R23 outn.n2 outn.t1 26.4115
R24 outn.n5 outn.n3 18.3624
R25 outn.n5 outn.n4 18.3624
R26 outn.n3 outn.n2 12.6243
R27 outn.n8 outn.n1 9.37742
R28 outn.n6 outn.n1 7.87742
R29 outn.n8 outn.n7 3.2851
R30 outn.n7 outn.n0 2.78257
R31 outn.n7 outn.n6 2.75975
R32 outn.n9 outn.n8 0.388
R33 VCCA.n2 VCCA 1935.41
R34 VCCA VCCA.n3 1272.05
R35 VCCA.n3 VCCA.n2 892.673
R36 VCCA.n2 VCCA 379.378
R37 VCCA.n3 VCCA 379.378
R38 VCCA.n1 VCCA 2.3755
R39 VCCA VCCA.n0 2.06612
R40 VCCA.n1 VCCA.n0 1.363
R41 VCCA VCCA 0.703625
R42 VCCA VCCA.n1 0.703625
R43 VCCA VCCA.n0 0.703625
R44 VGND VGND 184
R45 VGND VGND 48.0005
R46 GND GND.n3 4398.17
R47 GND.n3 GND.n2 3218.79
R48 GND GND.n0 2788.77
R49 GND.n1 GND.n0 2391.95
R50 GND.n2 GND.n1 1609.4
R51 GND.n2 GND 1179.38
R52 GND.n3 GND 1179.38
R53 GND.n6 GND.n5 2.3755
R54 GND.n4 GND 2.06612
R55 GND.n5 GND.n4 1.363
R56 GND.n5 GND 0.703625
R57 GND.n4 GND 0.703625
R58 GND GND.n6 0.703625
R59 GND.n6 GND 0.013
R60 inp.n8 inp.n4 154.782
R61 inp.n16 inp.n15 152
R62 inp.n9 inp.n5 152
R63 inp.n11 inp.n10 152
R64 inp.n10 inp.n3 139.321
R65 inp.n17 inp.n16 96.7759
R66 inp.n2 inp.t1 34.995
R67 inp.n6 inp.t2 34.995
R68 inp.n3 inp.t3 33.0142
R69 inp.n7 inp.t0 33.0142
R70 inp.n9 inp.n8 18.3624
R71 inp.n10 inp.n9 18.3624
R72 inp.n8 inp.n7 17.2148
R73 inp.n18 inp.n17 13.3645
R74 inp.n12 inp.n11 9.3005
R75 inp.n15 inp.n14 9.3005
R76 inp.n1 inp.n0 9.3005
R77 inp.n15 inp.n1 7.87742
R78 inp.n11 inp.n5 7.87742
R79 inp.n17 inp.n1 3.62653
R80 inp.n12 inp.n4 3.36202
R81 inp.n5 inp.n4 2.75975
R82 inp.n3 inp.n2 1.98132
R83 inp.n7 inp.n6 1.98132
R84 inp.n13 inp 1.713
R85 inp.n16 inp.n3 1.14812
R86 inp.n13 inp.n12 0.433192
R87 inp.n14 inp.n13 0.1255
R88 inp.n14 inp.n0 0.0774231
R89 inp.n18 inp.n0 0.0774231
R90 inp inp.n18 0.0389615
R91 inn.n6 inn.n3 154.782
R92 inn.n13 inn.n12 152
R93 inn.n7 inn.n4 152
R94 inn.n9 inn.n8 152
R95 inn.n8 inn.n2 139.321
R96 inn.n14 inn.n13 96.7759
R97 inn.n2 inn.t3 33.0142
R98 inn.n5 inn.t0 33.0142
R99 inn.n2 inn.t1 26.4115
R100 inn.n5 inn.t2 26.4115
R101 inn.n7 inn.n6 18.3624
R102 inn.n8 inn.n7 18.3624
R103 inn.n6 inn.n5 17.2148
R104 inn.n15 inn.n14 13.3645
R105 inn.n10 inn.n9 9.3005
R106 inn.n12 inn.n11 9.3005
R107 inn.n1 inn.n0 9.3005
R108 inn.n12 inn.n1 7.87742
R109 inn.n9 inn.n4 7.87742
R110 inn inn 6.163
R111 inn.n14 inn.n1 3.62653
R112 inn.n10 inn.n3 3.36202
R113 inn.n4 inn.n3 2.75975
R114 inn.n13 inn.n2 1.14812
R115 inn.n11 inn.n10 0.558192
R116 inn.n11 inn.n0 0.0774231
R117 inn.n15 inn.n0 0.0774231
R118 inn inn.n15 0.0389615
C0 VPWR outn 0.47534f
C1 VPWR outp 0.820995f
C2 inn inp 0.693261f
C3 VPWR VGND -0.025714f
C4 inp VCCA 0.231551f
C5 inn VCCA 0.033669f
C6 outn inp 2.76e-19
C7 outp inp 1.174527f
C8 inn outn 1.441168f
C9 inn outp 1.301178f
C10 outn VCCA 0.340955f
C11 outp VCCA 0.630102f
C12 VGND inp -0.021509f
C13 inn VGND 0.579754f
C14 VGND VCCA -0.005486f
C15 VPWR inp 0.104068f
C16 outn outp 1.146308f
C17 inn VPWR 0.005968f
C18 VPWR VCCA 0.738599f
C19 outn VGND 0.349471f
C20 outp VGND 0.329634f
C21 VCCA GND 25.111067f
C22 inn.n0 GND 0.022291f
C23 inn.n1 GND 0.022291f
C24 inn.t3 GND 1.04834f
C25 inn.t1 GND 0.813636f
C26 inn.n2 GND 0.834276f
C27 inn.n3 GND 0.023086f
C28 inn.n4 GND 0.022291f
C29 inn.t0 GND 1.04834f
C30 inn.t2 GND 0.813636f
C31 inn.n5 GND 0.885279f
C32 inn.n6 GND 0.035288f
C33 inn.n7 GND 0.036009f
C34 inn.n8 GND 0.137489f
C35 inn.n9 GND 0.022291f
C36 inn.n10 GND 0.135336f
C37 inn.n11 GND 0.091952f
C38 inn.n12 GND 0.022291f
C39 inn.n13 GND 0.126403f
C40 inn.n14 GND 0.048735f
C41 inn.n15 GND 0.027038f
C42 inp.n0 GND 0.015859f
C43 inp.n1 GND 0.015859f
C44 inp.t3 GND 0.745832f
C45 inp.t1 GND 0.851584f
C46 inp.n2 GND 0.311691f
C47 inp.n3 GND 0.387601f
C48 inp.n4 GND 0.016425f
C49 inp.n5 GND 0.015859f
C50 inp.t0 GND 0.745832f
C51 inp.t2 GND 0.851584f
C52 inp.n6 GND 0.311691f
C53 inp.n7 GND 0.423886f
C54 inp.n8 GND 0.025105f
C55 inp.n9 GND 0.025618f
C56 inp.n10 GND 0.097815f
C57 inp.n11 GND 0.015859f
C58 inp.n12 GND 0.083398f
C59 inp.n13 GND 0.166119f
C60 inp.n14 GND 0.020815f
C61 inp.n15 GND 0.015859f
C62 inp.n16 GND 0.089928f
C63 inp.n17 GND 0.034672f
C64 inp.n18 GND 0.019236f
C65 VCCA.n0 GND 0.099298f
C66 VCCA.n1 GND 0.10868f
C67 VCCA.n2 GND 1.27414f
C68 VCCA.n3 GND 1.35246f
C69 outn.n0 GND 0.080057f
C70 outn.n1 GND 0.029589f
C71 outn.t0 GND 1.38023f
C72 outn.t1 GND 1.07122f
C73 outn.n2 GND 1.15962f
C74 outn.n3 GND 0.040001f
C75 outn.n4 GND 0.068151f
C76 outn.n5 GND 0.047409f
C77 outn.n6 GND 0.029349f
C78 outn.n8 GND 0.131304f
C79 outn.n9 GND 1.66451f
C80 outp.n0 GND 0.030628f
C81 outp.n1 GND 0.031933f
C82 outp.t2 GND 1.50177f
C83 outp.t3 GND 1.16555f
C84 outp.n2 GND 1.23052f
C85 outp.n3 GND 0.051766f
C86 outp.n4 GND 2.36036f
C87 outp.n5 GND 0.593207f
C88 outp.n6 GND 0.11284f
C89 inn GND 6.099599f
C90 vco_main_inv_1/VGND.t0 GND 0.250404f **FLOATING
C91 vco_main_inv_1/VGND.t1 GND 0.250403f **FLOATING
C92 vco_main_inv_1/VCCA.t1 GND 0.461883f **FLOATING
C93 vco_main_inv_1/VCCA.t0 GND 0.434851f **FLOATING
C94 vco_main_inv_1/VPWR.t1 GND 0.343875f **FLOATING
C95 vco_main_inv_1/VPWR.t0 GND 0.343875f **FLOATING
C96 vco_main_inv_1/Y.t1 GND 0.068241f **FLOATING
C97 vco_main_inv_1/Y.t3 GND 0.068241f **FLOATING
C98 vco_main_inv_1/Y.n0 GND 0.136483f **FLOATING
C99 vco_main_inv_1/Y.t0 GND 0.085302f **FLOATING
C100 vco_main_inv_1/Y.t2 GND 0.085302f **FLOATING
C101 vco_main_inv_1/Y.n1 GND 0.454874f **FLOATING
C102 vco_main_inv_1/Y.n2 GND 0.32761f **FLOATING
C103 vco_main_inv_1/A.n0 GND 0.011465f **FLOATING
C104 vco_main_inv_1/A.n1 GND 0.011465f **FLOATING
C105 vco_main_inv_1/A.t3 GND 0.539176f **FLOATING
C106 vco_main_inv_1/A.t1 GND 0.418465f **FLOATING
C107 vco_main_inv_1/A.n2 GND 0.429081f **FLOATING
C108 vco_main_inv_1/A.n3 GND 0.011874f **FLOATING
C109 vco_main_inv_1/A.n4 GND 0.011465f **FLOATING
C110 vco_main_inv_1/A.t0 GND 0.539176f **FLOATING
C111 vco_main_inv_1/A.t2 GND 0.418465f **FLOATING
C112 vco_main_inv_1/A.n5 GND 0.455312f **FLOATING
C113 vco_main_inv_1/A.n6 GND 0.018149f **FLOATING
C114 vco_main_inv_1/A.n7 GND 0.01852f **FLOATING
C115 vco_main_inv_1/A.n8 GND 0.070712f **FLOATING
C116 vco_main_inv_1/A.n9 GND 0.011465f **FLOATING
C117 vco_main_inv_1/A.n10 GND 0.069605f **FLOATING
C118 vco_main_inv_1/A.n11 GND 0.047292f **FLOATING
C119 vco_main_inv_1/A.n12 GND 0.011465f **FLOATING
C120 vco_main_inv_1/A.n13 GND 0.065011f **FLOATING
C121 vco_main_inv_1/A.n14 GND 0.025065f **FLOATING
C122 vco_main_inv_1/A.n15 GND 0.013906f **FLOATING
C123 VGND GND 7.114669f
C124 outp GND 4.024245f
C125 VPWR GND 8.116857f
C126 inp GND 3.857572f
C127 vco_main_inv_0/VGND.t0 GND 0.250404f **FLOATING
C128 vco_main_inv_0/VGND.t1 GND 0.250403f **FLOATING
C129 vco_main_inv_0/VCCA.t1 GND 0.461883f **FLOATING
C130 vco_main_inv_0/VCCA.t0 GND 0.434851f **FLOATING
C131 vco_main_inv_0/VPWR.t1 GND 0.343875f **FLOATING
C132 vco_main_inv_0/VPWR.t0 GND 0.343875f **FLOATING
C133 vco_main_inv_0/Y.t1 GND 0.068241f **FLOATING
C134 vco_main_inv_0/Y.t3 GND 0.068241f **FLOATING
C135 vco_main_inv_0/Y.n0 GND 0.136483f **FLOATING
C136 vco_main_inv_0/Y.t0 GND 0.085302f **FLOATING
C137 vco_main_inv_0/Y.t2 GND 0.085302f **FLOATING
C138 vco_main_inv_0/Y.n1 GND 0.454874f **FLOATING
C139 vco_main_inv_0/Y.n2 GND 0.32761f **FLOATING
C140 vco_main_inv_0/A.n0 GND 0.011465f **FLOATING
C141 vco_main_inv_0/A.n1 GND 0.011465f **FLOATING
C142 vco_main_inv_0/A.t3 GND 0.539176f **FLOATING
C143 vco_main_inv_0/A.t1 GND 0.418465f **FLOATING
C144 vco_main_inv_0/A.n2 GND 0.429081f **FLOATING
C145 vco_main_inv_0/A.n3 GND 0.011874f **FLOATING
C146 vco_main_inv_0/A.n4 GND 0.011465f **FLOATING
C147 vco_main_inv_0/A.t0 GND 0.539176f **FLOATING
C148 vco_main_inv_0/A.t2 GND 0.418465f **FLOATING
C149 vco_main_inv_0/A.n5 GND 0.455312f **FLOATING
C150 vco_main_inv_0/A.n6 GND 0.018149f **FLOATING
C151 vco_main_inv_0/A.n7 GND 0.01852f **FLOATING
C152 vco_main_inv_0/A.n8 GND 0.070712f **FLOATING
C153 vco_main_inv_0/A.n9 GND 0.011465f **FLOATING
C154 vco_main_inv_0/A.n10 GND 0.069605f **FLOATING
C155 vco_main_inv_0/A.n11 GND 0.047292f **FLOATING
C156 vco_main_inv_0/A.n12 GND 0.011465f **FLOATING
C157 vco_main_inv_0/A.n13 GND 0.065011f **FLOATING
C158 vco_main_inv_0/A.n14 GND 0.025065f **FLOATING
C159 vco_main_inv_0/A.n15 GND 0.013906f **FLOATING
C160 vco_aux_inv_1/VGND.t0 GND 0.147555f **FLOATING
C161 vco_aux_inv_1/VCCA.t0 GND 0.410921f **FLOATING
C162 vco_aux_inv_1/Y.t1 GND 0.195096f **FLOATING
C163 vco_aux_inv_1/Y.t0 GND 0.168683f **FLOATING
C164 vco_aux_inv_1/VPWR.t0 GND 0.206917f **FLOATING
C165 vco_aux_inv_1/A.t0 GND 0.470811f **FLOATING
C166 vco_aux_inv_1/A.t1 GND 0.365405f **FLOATING
C167 vco_aux_inv_1/A.n0 GND 0.426892f **FLOATING
C168 outn GND 3.634727f
C169 vco_aux_inv_0/VGND.t0 GND 0.147555f **FLOATING
C170 vco_aux_inv_0/VCCA.t0 GND 0.410921f **FLOATING
C171 vco_aux_inv_0/Y.t1 GND 0.195096f **FLOATING
C172 vco_aux_inv_0/Y.t0 GND 0.168683f **FLOATING
C173 vco_aux_inv_0/VPWR.t0 GND 0.206917f **FLOATING
C174 vco_aux_inv_0/A.t0 GND 0.470811f **FLOATING
C175 vco_aux_inv_0/A.t1 GND 0.365405f **FLOATING
C176 vco_aux_inv_0/A.n0 GND 0.426892f **FLOATING
.ends

.subckt vco_ring_osc VGND p[1] p[2] p[3] p[4] pn[1] pn[2] pn[3] pn[4] p[0] VCCA pn[0]
+ VPWR GND
Xvco_cc_inv_0 p[0] pn[4] pn[0] VPWR p[4] VCCA GND VGND vco_cc_inv
Xvco_cc_inv_1 p[1] pn[0] pn[1] VPWR p[0] VCCA GND VGND vco_cc_inv
Xvco_cc_inv_2 p[2] pn[1] pn[2] VPWR p[1] VCCA GND VGND vco_cc_inv
Xvco_cc_inv_3 p[4] pn[3] pn[4] VPWR p[3] VCCA GND VGND vco_cc_inv
Xvco_cc_inv_4 p[3] pn[2] pn[3] VPWR p[2] VCCA GND VGND vco_cc_inv
X0 pn[2] pn[1].t3 VGND GND sky130_fd_pr__nfet_01v8 ad=0.8 pd=4.4 as=1.6 ps=8.8 w=0 l=0
X1 pn[4] p[4].t5 VGND GND sky130_fd_pr__nfet_01v8 ad=1.6 pd=8.8 as=1.6 ps=8.8 w=0 l=0
X2 VPWR p[2].t2 p[3] VCCA sky130_fd_pr__pfet_01v8 ad=2 pd=10.8 as=1 ps=5.4 w=0 l=0
X3 VGND pn[4].t2 pn[0] GND sky130_fd_pr__nfet_01v8 ad=1.6 pd=8.8 as=0.8 ps=4.4 w=0 l=0
X4 pn[0] pn[4].t3 VPWR VCCA sky130_fd_pr__pfet_01v8 ad=1 pd=5.4 as=2 ps=10.8 w=0 l=0
X5 pn[1] p[1].t1 VGND GND sky130_fd_pr__nfet_01v8 ad=1.6 pd=8.8 as=1.6 ps=8.8 w=0 l=0
X6 pn[3] p[3].t5 VGND GND sky130_fd_pr__nfet_01v8 ad=1.6 pd=8.8 as=1.6 ps=8.8 w=0 l=0
X7 p[0] pn[0].t0 VPWR VCCA sky130_fd_pr__pfet_01v8 ad=2 pd=10.8 as=2 ps=10.8 w=0 l=0
X8 VGND pn[1].t4 pn[2] GND sky130_fd_pr__nfet_01v8 ad=1.6 pd=8.8 as=0.8 ps=4.4 w=0 l=0
X9 p[4] p[3].t3 VPWR VCCA sky130_fd_pr__pfet_01v8 ad=1 pd=5.4 as=2 ps=10.8 w=0 l=0
X10 p[3] p[2].t3 VGND GND sky130_fd_pr__nfet_01v8 ad=0.8 pd=4.4 as=1.6 ps=8.8 w=0 l=0
X11 pn[0] p[0].t2 VPWR VCCA sky130_fd_pr__pfet_01v8 ad=2 pd=10.8 as=2 ps=10.8 w=0 l=0
X12 VPWR p[4].t0 p[0] VCCA sky130_fd_pr__pfet_01v8 ad=2 pd=10.8 as=1 ps=5.4 w=0 l=0
X13 VPWR pn[4].t0 pn[0] VCCA sky130_fd_pr__pfet_01v8 ad=2 pd=10.8 as=1 ps=5.4 w=0 l=0
X14 VPWR p[3].t0 p[4] VCCA sky130_fd_pr__pfet_01v8 ad=2 pd=10.8 as=1 ps=5.4 w=0 l=0
X15 VGND p[2].t4 p[3] GND sky130_fd_pr__nfet_01v8 ad=1.6 pd=8.8 as=0.8 ps=4.4 w=0 l=0
X16 p[4] p[3].t1 VGND GND sky130_fd_pr__nfet_01v8 ad=0.8 pd=4.4 as=1.6 ps=8.8 w=0 l=0
X17 p[0] pn[0].t1 VGND GND sky130_fd_pr__nfet_01v8 ad=1.6 pd=8.8 as=1.6 ps=8.8 w=0 l=0
X18 p[1] p[0].t5 VGND GND sky130_fd_pr__nfet_01v8 ad=0.8 pd=4.4 as=1.6 ps=8.8 w=0 l=0
X19 p[0] p[4].t1 VGND GND sky130_fd_pr__nfet_01v8 ad=0.8 pd=4.4 as=1.6 ps=8.8 w=0 l=0
X20 p[2] pn[2].t1 VGND GND sky130_fd_pr__nfet_01v8 ad=1.6 pd=8.8 as=1.6 ps=8.8 w=0 l=0
X21 pn[1] pn[0].t5 VPWR VCCA sky130_fd_pr__pfet_01v8 ad=1 pd=5.4 as=2 ps=10.8 w=0 l=0
X22 VGND p[3].t2 p[4] GND sky130_fd_pr__nfet_01v8 ad=1.6 pd=8.8 as=0.8 ps=4.4 w=0 l=0
X23 VGND p[0].t6 p[1] GND sky130_fd_pr__nfet_01v8 ad=1.6 pd=8.8 as=0.8 ps=4.4 w=0 l=0
X24 VGND p[4].t2 p[0] GND sky130_fd_pr__nfet_01v8 ad=1.6 pd=8.8 as=0.8 ps=4.4 w=0 l=0
X25 VPWR pn[0].t2 pn[1] VCCA sky130_fd_pr__pfet_01v8 ad=2 pd=10.8 as=1 ps=5.4 w=0 l=0
X26 p[0] p[4].t3 VPWR VCCA sky130_fd_pr__pfet_01v8 ad=1 pd=5.4 as=2 ps=10.8 w=0 l=0
X27 pn[1] pn[0].t3 VGND GND sky130_fd_pr__nfet_01v8 ad=0.8 pd=4.4 as=1.6 ps=8.8 w=0 l=0
X28 pn[0] p[0].t3 VGND GND sky130_fd_pr__nfet_01v8 ad=1.6 pd=8.8 as=1.6 ps=8.8 w=0 l=0
X29 p[1] p[0].t7 VPWR VCCA sky130_fd_pr__pfet_01v8 ad=1 pd=5.4 as=2 ps=10.8 w=0 l=0
X30 p[1] pn[1].t0 VPWR VCCA sky130_fd_pr__pfet_01v8 ad=2 pd=10.8 as=2 ps=10.8 w=0 l=0
X31 VGND pn[0].t4 pn[1] GND sky130_fd_pr__nfet_01v8 ad=1.6 pd=8.8 as=0.8 ps=4.4 w=0 l=0
X32 pn[1] p[1].t0 VPWR VCCA sky130_fd_pr__pfet_01v8 ad=2 pd=10.8 as=2 ps=10.8 w=0 l=0
X33 pn[2] p[2].t1 VGND GND sky130_fd_pr__nfet_01v8 ad=1.6 pd=8.8 as=1.6 ps=8.8 w=0 l=0
X34 VPWR p[0].t4 p[1] VCCA sky130_fd_pr__pfet_01v8 ad=2 pd=10.8 as=1 ps=5.4 w=0 l=0
X35 VPWR pn[3].t0 pn[4] VCCA sky130_fd_pr__pfet_01v8 ad=2 pd=10.8 as=1 ps=5.4 w=0 l=0
X36 pn[4] pn[3].t3 VPWR VCCA sky130_fd_pr__pfet_01v8 ad=1 pd=5.4 as=2 ps=10.8 w=0 l=0
X37 p[4] pn[4].t4 VPWR VCCA sky130_fd_pr__pfet_01v8 ad=2 pd=10.8 as=2 ps=10.8 w=0 l=0
X38 VPWR pn[2].t2 pn[3] VCCA sky130_fd_pr__pfet_01v8 ad=2 pd=10.8 as=1 ps=5.4 w=0 l=0
X39 pn[3] pn[2].t5 VPWR VCCA sky130_fd_pr__pfet_01v8 ad=1 pd=5.4 as=2 ps=10.8 w=0 l=0
X40 p[1] pn[1].t1 VGND GND sky130_fd_pr__nfet_01v8 ad=1.6 pd=8.8 as=1.6 ps=8.8 w=0 l=0
X41 p[2] p[1].t3 VGND GND sky130_fd_pr__nfet_01v8 ad=0.8 pd=4.4 as=1.6 ps=8.8 w=0 l=0
X42 p[2] p[1].t5 VPWR VCCA sky130_fd_pr__pfet_01v8 ad=1 pd=5.4 as=2 ps=10.8 w=0 l=0
X43 pn[2] pn[1].t5 VPWR VCCA sky130_fd_pr__pfet_01v8 ad=1 pd=5.4 as=2 ps=10.8 w=0 l=0
X44 p[3] pn[3].t4 VPWR VCCA sky130_fd_pr__pfet_01v8 ad=2 pd=10.8 as=2 ps=10.8 w=0 l=0
X45 p[2] pn[2].t0 VPWR VCCA sky130_fd_pr__pfet_01v8 ad=2 pd=10.8 as=2 ps=10.8 w=0 l=0
X46 VGND pn[3].t2 pn[4] GND sky130_fd_pr__nfet_01v8 ad=1.6 pd=8.8 as=0.8 ps=4.4 w=0 l=0
X47 pn[2] p[2].t0 VPWR VCCA sky130_fd_pr__pfet_01v8 ad=2 pd=10.8 as=2 ps=10.8 w=0 l=0
X48 pn[4] p[4].t4 VPWR VCCA sky130_fd_pr__pfet_01v8 ad=2 pd=10.8 as=2 ps=10.8 w=0 l=0
X49 pn[4] pn[3].t1 VGND GND sky130_fd_pr__nfet_01v8 ad=0.8 pd=4.4 as=1.6 ps=8.8 w=0 l=0
X50 VPWR p[1].t2 p[2] VCCA sky130_fd_pr__pfet_01v8 ad=2 pd=10.8 as=1 ps=5.4 w=0 l=0
X51 VGND p[1].t4 p[2] GND sky130_fd_pr__nfet_01v8 ad=1.6 pd=8.8 as=0.8 ps=4.4 w=0 l=0
X52 VPWR pn[1].t2 pn[2] VCCA sky130_fd_pr__pfet_01v8 ad=2 pd=10.8 as=1 ps=5.4 w=0 l=0
X53 p[4] pn[4].t5 VGND GND sky130_fd_pr__nfet_01v8 ad=1.6 pd=8.8 as=1.6 ps=8.8 w=0 l=0
X54 VGND pn[2].t4 pn[3] GND sky130_fd_pr__nfet_01v8 ad=1.6 pd=8.8 as=0.8 ps=4.4 w=0 l=0
X55 pn[3] p[3].t4 VPWR VCCA sky130_fd_pr__pfet_01v8 ad=2 pd=10.8 as=2 ps=10.8 w=0 l=0
X56 pn[3] pn[2].t3 VGND GND sky130_fd_pr__nfet_01v8 ad=0.8 pd=4.4 as=1.6 ps=8.8 w=0 l=0
X57 pn[0] pn[4].t1 VGND GND sky130_fd_pr__nfet_01v8 ad=0.8 pd=4.4 as=1.6 ps=8.8 w=0 l=0
X58 p[3] pn[3].t5 VGND GND sky130_fd_pr__nfet_01v8 ad=1.6 pd=8.8 as=1.6 ps=8.8 w=0 l=0
X59 p[3] p[2].t5 VPWR VCCA sky130_fd_pr__pfet_01v8 ad=1 pd=5.4 as=2 ps=10.8 w=0 l=0
R0 p[0].n19 p[0].n17 169.702
R1 p[0].n5 p[0].n4 154.782
R2 p[0].n22 p[0].n21 152
R3 p[0].n20 p[0].n18 152
R4 p[0].n8 p[0].n7 152
R5 p[0].n6 p[0].n2 152
R6 p[0].n14 p[0].n10 152
R7 p[0].n9 p[0].n8 139.321
R8 p[0].n12 p[0].n10 96.7759
R9 p[0].n21 p[0] 61.9719
R10 p[0].n19 p[0].t2 33.0142
R11 p[0].n3 p[0].t4 33.0142
R12 p[0].n9 p[0].t7 33.0142
R13 p[0].n19 p[0].t3 26.4115
R14 p[0].n3 p[0].t6 26.4115
R15 p[0].n9 p[0].t5 26.4115
R16 p[0].n21 p[0].n20 18.3624
R17 p[0].n4 p[0].n2 18.3624
R18 p[0].n8 p[0].n2 18.3624
R19 p[0].n4 p[0].n3 17.2148
R20 p[0].n12 p[0].n11 13.3645
R21 p[0].n13 p[0].n1 9.3005
R22 p[0].n15 p[0].n14 9.3005
R23 p[0].n7 p[0].n0 9.3005
R24 p[0].n23 p[0].n22 9.1001
R25 p[0].n22 p[0].n18 7.87742
R26 p[0].n7 p[0].n6 7.87742
R27 p[0].n14 p[0].n13 7.87742
R28 p[0] p[0].n23 5.11554
R29 p[0].n13 p[0].n12 3.62653
R30 p[0].n20 p[0].n19 3.44336
R31 p[0].n5 p[0].n0 3.36202
R32 p[0].n23 p[0].n17 3.30681
R33 p[0].n6 p[0].n5 2.75975
R34 p[0].n18 p[0].n17 2.75975
R35 p[0] p[0].n16 1.613
R36 p[0].n10 p[0].n9 1.14812
R37 p[0].n16 p[0].n0 0.433192
R38 p[0].n16 p[0].n15 0.1255
R39 p[0] p[0] 0.1005
R40 p[0].n15 p[0].n1 0.0774231
R41 p[0].n11 p[0].n1 0.0774231
R42 p[0].n11 p[0] 0.0389615
R43 VPWR.n7 VPWR.n2 1992
R44 VPWR.n1 VPWR.n0 785.601
R45 VPWR.n6 VPWR.n5 785.601
R46 VPWR VPWR.n3 443.2
R47 VPWR.n4 VPWR 342.401
R48 VPWR.n0 VPWR 203.201
R49 VPWR.n3 VPWR 203.201
R50 VPWR.n2 VPWR.n1 174.4
R51 VPWR.n7 VPWR.n6 174.4
R52 VPWR.n5 VPWR.n4 174.4
R53 VPWR.n2 VPWR 28.8005
R54 VPWR.n1 VPWR 28.8005
R55 VPWR.n0 VPWR 28.8005
R56 VPWR.n3 VPWR 28.8005
R57 VPWR.n4 VPWR 28.8005
R58 VPWR.n5 VPWR 28.8005
R59 VPWR.n6 VPWR 28.8005
R60 VPWR VPWR.n7 28.8005
R61 pn[0].n6 pn[0].n3 154.782
R62 pn[0].n24 pn[0].n23 152
R63 pn[0].n22 pn[0].n21 152
R64 pn[0].n20 pn[0].n19 152
R65 pn[0].n9 pn[0].n8 152
R66 pn[0].n7 pn[0].n4 152
R67 pn[0].n13 pn[0].n12 152
R68 pn[0] pn[0].n25 140.952
R69 pn[0].n8 pn[0].n2 139.321
R70 pn[0].n14 pn[0].n13 96.7759
R71 pn[0].n25 pn[0] 57.8268
R72 pn[0] pn[0].n24 53.859
R73 pn[0].n23 pn[0] 34.4291
R74 pn[0].n18 pn[0].t0 33.0142
R75 pn[0].n5 pn[0].t2 33.0142
R76 pn[0].n2 pn[0].t5 33.0142
R77 pn[0].n18 pn[0].t1 26.4115
R78 pn[0].n5 pn[0].t4 26.4115
R79 pn[0].n2 pn[0].t3 26.4115
R80 pn[0].n22 pn[0].n19 18.3624
R81 pn[0].n23 pn[0].n22 18.3624
R82 pn[0].n7 pn[0].n6 18.3624
R83 pn[0].n8 pn[0].n7 18.3624
R84 pn[0].n6 pn[0].n5 17.2148
R85 pn[0].n15 pn[0].n14 13.3645
R86 pn[0].n19 pn[0].n18 12.6243
R87 pn[0].n20 pn[0].n16 9.37742
R88 pn[0].n1 pn[0].n0 9.3005
R89 pn[0].n12 pn[0].n11 9.3005
R90 pn[0].n10 pn[0].n9 9.3005
R91 pn[0].n21 pn[0].n20 7.87742
R92 pn[0].n9 pn[0].n4 7.87742
R93 pn[0].n12 pn[0].n1 7.87742
R94 pn[0] pn[0] 6.0755
R95 pn[0].n14 pn[0].n1 3.62653
R96 pn[0].n10 pn[0].n3 3.36202
R97 pn[0].n17 pn[0].n16 3.2851
R98 pn[0].n24 pn[0].n17 2.78257
R99 pn[0].n4 pn[0].n3 2.75975
R100 pn[0].n21 pn[0].n17 2.75975
R101 pn[0].n13 pn[0].n2 1.14812
R102 pn[0].n11 pn[0].n10 0.558192
R103 pn[0].n25 pn[0].n16 0.388
R104 pn[0] pn[0] 0.088
R105 pn[0].n11 pn[0].n0 0.0774231
R106 pn[0].n15 pn[0].n0 0.0774231
R107 pn[0] pn[0].n15 0.0389615
R108 VCCA VCCA.n15 1935.41
R109 VCCA VCCA.n5 1935.41
R110 VCCA.n9 VCCA.n8 1572.41
R111 VCCA.n13 VCCA.n12 1572.41
R112 VCCA.n3 VCCA.n2 1572.41
R113 VCCA.n8 VCCA.n7 1556.03
R114 VCCA.n12 VCCA.n11 1556.03
R115 VCCA.n2 VCCA.n1 1556.03
R116 VCCA.n6 VCCA 1272.05
R117 VCCA VCCA.n0 1272.05
R118 VCCA.n7 VCCA.n6 892.673
R119 VCCA.n10 VCCA.n9 892.673
R120 VCCA.n11 VCCA.n10 892.673
R121 VCCA.n14 VCCA.n13 892.673
R122 VCCA.n15 VCCA.n14 892.673
R123 VCCA.n5 VCCA.n4 892.673
R124 VCCA.n4 VCCA.n3 892.673
R125 VCCA.n1 VCCA.n0 892.673
R126 VCCA.n15 VCCA 379.378
R127 VCCA.n14 VCCA 379.378
R128 VCCA.n13 VCCA 379.378
R129 VCCA.n12 VCCA 379.378
R130 VCCA.n11 VCCA 379.378
R131 VCCA.n10 VCCA 379.378
R132 VCCA.n9 VCCA 379.378
R133 VCCA.n8 VCCA 379.378
R134 VCCA.n7 VCCA 379.378
R135 VCCA.n6 VCCA 379.378
R136 VCCA VCCA.n0 379.378
R137 VCCA.n1 VCCA 379.378
R138 VCCA.n2 VCCA 379.378
R139 VCCA.n3 VCCA 379.378
R140 VCCA.n4 VCCA 379.378
R141 VCCA.n5 VCCA 379.378
R142 VCCA.n28 VCCA.n27 13.463
R143 VCCA.n32 VCCA.n31 2.4005
R144 VCCA.n24 VCCA.n23 2.4005
R145 VCCA.n20 VCCA.n19 2.4005
R146 VCCA.n29 VCCA.n28 2.3755
R147 VCCA.n33 VCCA.n32 2.3755
R148 VCCA.n25 VCCA.n24 2.3755
R149 VCCA.n21 VCCA.n20 2.3755
R150 VCCA.n17 VCCA.n16 2.3755
R151 VCCA VCCA.n34 2.06612
R152 VCCA.n30 VCCA.n29 1.363
R153 VCCA.n31 VCCA.n30 1.363
R154 VCCA.n34 VCCA.n33 1.363
R155 VCCA.n27 VCCA.n26 1.363
R156 VCCA.n26 VCCA.n25 1.363
R157 VCCA.n23 VCCA.n22 1.363
R158 VCCA.n22 VCCA.n21 1.363
R159 VCCA.n19 VCCA.n18 1.363
R160 VCCA.n18 VCCA.n17 1.363
R161 VCCA.n16 VCCA 0.703625
R162 VCCA.n17 VCCA 0.703625
R163 VCCA.n18 VCCA 0.703625
R164 VCCA.n19 VCCA 0.703625
R165 VCCA.n20 VCCA 0.703625
R166 VCCA.n21 VCCA 0.703625
R167 VCCA.n22 VCCA 0.703625
R168 VCCA.n23 VCCA 0.703625
R169 VCCA.n24 VCCA 0.703625
R170 VCCA.n25 VCCA 0.703625
R171 VCCA.n26 VCCA 0.703625
R172 VCCA.n27 VCCA 0.703625
R173 VCCA.n34 VCCA 0.703625
R174 VCCA.n33 VCCA 0.703625
R175 VCCA.n32 VCCA 0.703625
R176 VCCA.n31 VCCA 0.703625
R177 VCCA.n30 VCCA 0.703625
R178 VCCA.n29 VCCA 0.703625
R179 VCCA.n28 VCCA 0.703625
R180 VCCA.n16 VCCA 0.0255
R181 VGND.n4 VGND.n3 920
R182 VGND.n6 VGND.n5 785.601
R183 VGND.n2 VGND.n1 785.601
R184 VGND VGND.n7 515.201
R185 VGND.n9 VGND.n8 484.8
R186 VGND.n8 VGND.n0 300.8
R187 VGND VGND.n9 203.201
R188 VGND.n5 VGND.n4 174.4
R189 VGND.n7 VGND.n6 174.4
R190 VGND.n3 VGND.n2 174.4
R191 VGND.n1 VGND.n0 174.4
R192 VGND.n8 VGND 103.68
R193 VGND.n7 VGND 28.8005
R194 VGND.n6 VGND 28.8005
R195 VGND.n5 VGND 28.8005
R196 VGND.n4 VGND 28.8005
R197 VGND.n3 VGND 28.8005
R198 VGND.n2 VGND 28.8005
R199 VGND.n1 VGND 28.8005
R200 VGND.n0 VGND 28.8005
R201 VGND.n9 VGND 28.8005
R202 GND.n25 GND.n1 180651
R203 GND.n30 GND.n1 115091
R204 GND.n43 GND.n42 1912.1
R205 GND.n9 GND.n8 1912.1
R206 GND.n7 GND.n5 1912.1
R207 GND.n32 GND.n31 1912.1
R208 GND.n30 GND.n29 1422.85
R209 GND GND.n32 1179.38
R210 GND.n19 GND 1179.38
R211 GND.n17 GND 1179.38
R212 GND.n7 GND 1179.38
R213 GND.n9 GND 1179.38
R214 GND GND.n11 1179.38
R215 GND GND.n2 1179.38
R216 GND.n29 GND 1179.38
R217 GND GND.n21 1179.38
R218 GND.n22 GND 1179.38
R219 GND GND.n25 1179.38
R220 GND.n42 GND 1179.38
R221 GND.n6 GND 1179.38
R222 GND.n10 GND 1179.38
R223 GND.n8 GND 1179.38
R224 GND.n5 GND 1179.38
R225 GND.n18 GND 1179.38
R226 GND.n20 GND 1179.38
R227 GND.n31 GND 1179.38
R228 GND GND.n43 1179.38
R229 GND.n6 GND.n2 1032.1
R230 GND.n11 GND.n10 1032.1
R231 GND.n18 GND.n17 1032.1
R232 GND.n20 GND.n19 1032.1
R233 GND.n29 GND.n21 842.883
R234 GND.n22 GND.n21 842.883
R235 GND.n43 GND.n1 744.198
R236 GND.n24 GND.n23 626.362
R237 GND.n23 GND.n22 622.496
R238 GND.n25 GND.n24 220.387
R239 GND.n8 GND.n7 173.827
R240 GND.n42 GND.n2 152.1
R241 GND.n11 GND.n6 152.1
R242 GND.n10 GND.n9 152.1
R243 GND.n17 GND.n5 152.1
R244 GND.n19 GND.n18 152.1
R245 GND.n32 GND.n20 152.1
R246 GND.n31 GND.n30 86.9141
R247 GND.n26 GND 3.07862
R248 GND GND.n0 2.91613
R249 GND.n38 GND.n37 2.4005
R250 GND.n28 GND.n3 2.4005
R251 GND.n15 GND.n14 2.4005
R252 GND.n39 GND.n38 2.3755
R253 GND.n16 GND.n15 2.3755
R254 GND.n34 GND.n3 2.213
R255 GND.n40 GND.n39 1.363
R256 GND.n37 GND.n36 1.363
R257 GND.n36 GND.n35 1.363
R258 GND.n28 GND.n27 1.363
R259 GND.n27 GND.n26 1.363
R260 GND.n13 GND.n12 1.363
R261 GND.n14 GND.n13 1.363
R262 GND.n16 GND.n4 1.363
R263 GND.n41 GND.n40 1.3505
R264 GND.n33 GND.n4 1.3505
R265 GND.n41 GND.n0 1.338
R266 GND.n34 GND 1.2505
R267 GND.n33 GND 0.716125
R268 GND GND.n41 0.716125
R269 GND GND.n4 0.703625
R270 GND GND.n16 0.703625
R271 GND.n15 GND 0.703625
R272 GND.n14 GND 0.703625
R273 GND.n13 GND 0.703625
R274 GND.n12 GND 0.703625
R275 GND.n40 GND 0.703625
R276 GND.n39 GND 0.703625
R277 GND.n38 GND 0.703625
R278 GND.n37 GND 0.703625
R279 GND.n36 GND 0.703625
R280 GND.n35 GND 0.703625
R281 GND GND.n3 0.703625
R282 GND.n27 GND 0.703625
R283 GND.n26 GND 0.703625
R284 GND GND.n28 0.703625
R285 GND.n35 GND.n34 0.163
R286 GND.n12 GND.n0 0.163
R287 GND GND.n33 0.088
R288 p[4].n10 p[4].n9 154.782
R289 p[4].n17 p[4].n16 152
R290 p[4].n8 p[4].n6 152
R291 p[4].n7 p[4].n5 152
R292 p[4].n13 p[4].n5 139.321
R293 p[4].n1 p[4] 110.117
R294 p[4].n16 p[4].n15 96.7759
R295 p[4].n1 p[4].n0 56.4054
R296 p[4].n0 p[4].t4 40.2772
R297 p[4].n0 p[4].t5 33.0142
R298 p[4].n13 p[4].t3 33.0142
R299 p[4].n11 p[4].t0 33.0142
R300 p[4].t2 p[4].n11 20.672
R301 p[4].n10 p[4].n6 18.3624
R302 p[4].n6 p[4].n5 18.3624
R303 p[4].n11 p[4].n10 17.2148
R304 p[4].n12 p[4].t1 15.7387
R305 p[4].n13 p[4].n12 15.6723
R306 p[4].n12 p[4].t2 15.5751
R307 p[4] p[4] 15.4505
R308 p[4].n15 p[4].n14 13.3645
R309 p[4].n7 p[4].n2 9.3005
R310 p[4].n18 p[4].n17 9.3005
R311 p[4].n4 p[4].n3 9.3005
R312 p[4].n17 p[4].n4 7.87742
R313 p[4].n8 p[4].n7 7.87742
R314 p[4].n15 p[4].n4 3.62653
R315 p[4].n9 p[4].n2 3.36202
R316 p[4].n9 p[4].n8 2.75975
R317 p[4] p[4].n1 2.4755
R318 p[4] p[4].n19 1.713
R319 p[4].n16 p[4].n13 1.14812
R320 p[4].n19 p[4].n2 0.433192
R321 p[4] p[4] 0.138
R322 p[4].n19 p[4].n18 0.1255
R323 p[4].n18 p[4].n3 0.0774231
R324 p[4].n14 p[4].n3 0.0774231
R325 p[4].n14 p[4] 0.0389615
R326 pn[4].n8 pn[4].n5 154.782
R327 pn[4].n15 pn[4].n14 152
R328 pn[4].n9 pn[4].n6 152
R329 pn[4].n11 pn[4].n10 152
R330 pn[4] pn[4].n1 142.576
R331 pn[4].n10 pn[4].n4 139.321
R332 pn[4].n16 pn[4].n15 96.7759
R333 pn[4].n1 pn[4].n0 74.283
R334 pn[4].n0 pn[4].t4 33.0142
R335 pn[4].n4 pn[4].t3 33.0142
R336 pn[4].n7 pn[4].t0 33.0142
R337 pn[4].n1 pn[4] 27.7778
R338 pn[4].n0 pn[4].t5 26.4115
R339 pn[4].n4 pn[4].t1 26.4115
R340 pn[4].n7 pn[4].t2 26.4115
R341 pn[4].n9 pn[4].n8 18.3624
R342 pn[4].n10 pn[4].n9 18.3624
R343 pn[4].n8 pn[4].n7 17.2148
R344 pn[4].n17 pn[4].n16 13.3645
R345 pn[4] pn[4] 11.513
R346 pn[4].n12 pn[4].n11 9.3005
R347 pn[4].n14 pn[4].n13 9.3005
R348 pn[4].n3 pn[4].n2 9.3005
R349 pn[4].n14 pn[4].n3 7.87742
R350 pn[4].n11 pn[4].n6 7.87742
R351 pn[4] pn[4] 6.163
R352 pn[4].n16 pn[4].n3 3.62653
R353 pn[4].n12 pn[4].n5 3.36202
R354 pn[4].n6 pn[4].n5 2.75975
R355 pn[4].n15 pn[4].n4 1.14812
R356 pn[4].n13 pn[4].n12 0.558192
R357 pn[4] pn[4] 0.1505
R358 pn[4].n13 pn[4].n2 0.0774231
R359 pn[4].n17 pn[4].n2 0.0774231
R360 pn[4] pn[4].n17 0.0389615
R361 p[1].n19 p[1].n17 169.702